<tazs>
    <taz id="1_2" shape="4001.0,12001.0 11999.0,12001.0 11999.0,19999.0 4001.0,19999.0 4001.0,12001.0" color="0,255,33" edges="-15933925 -15938823#0 -15938823#1 -15938823#2 -15938823#3 -15938823#4 -15942055 -15946511#4 -15946511#5 -225862971#1 -225862971#2 15933925 15938823#0 15938823#1 15938823#2 15938823#3 15938823#4 15942055 15946511#4 15946511#5 225862971#1 225862971#2"/>
    <taz id="1_3" shape="4001.0,20001.0 11999.0,20001.0 11999.0,27999.0 4001.0,27999.0 4001.0,20001.0" color="31,255,0" edges="-15938835 -15942879#0 -15943626#0 -15945725 -376025385#0 -376025385#1 -376025391#0 -376025391#1 -400650702#0 15938835 15942879#0 15943626#0 15945725 376025385#0 376025385#1 376025391#0 376025391#1 400650702#0"/>
    <taz id="1_4" shape="4001.0,28001.0 11999.0,28001.0 11999.0,35999.0 4001.0,35999.0 4001.0,28001.0" color="255,93,0" edges="-15931913 -15932228#1 -15932228#2 -15933217#0 -15936925#0 -15936925#1 -15944317#1 -15944317#2 -15946575#0 -15946711 -400650688#0 -400650688#1 -400650688#2 -400650709#0 -400650709#1 -400650709#2 -400650709#3 -400650709#4 15931913 15932228#2 15933217#0 15936925#0 15936925#1 15937460 15944317#1 15944317#2 15945720 15946575#0 15946711 363652421#4 400650688#1 400650688#2 400650709#1 400650709#2 400650709#3 400650709#4 43912551#0"/>
    <taz id="2_1" shape="12001.0,4001.0 19999.0,4001.0 19999.0,11999.0 12001.0,11999.0 12001.0,4001.0" color="0,139,255" edges="-15943338 15943338"/>
    <taz id="2_2" shape="12001.0,12001.0 19999.0,12001.0 19999.0,19999.0 12001.0,19999.0 12001.0,12001.0" color="253,0,255" edges="-100222832 -100222835#0 -100222838#0 -15935774 -15935787 -15936518#0 -15940647 -15941921 -15941976 -15942004#1 -15942004#2 -15942004#3 -15943346 -15943558#0 -15943558#1 -15943558#2 -15943558#3 -15943558#4 -15943558#5 -15943558#6 -15943558#7 -15945534 -15945657#0 -15945657#1 -15946511#0 -15946511#1 -15946511#2 -15946511#3 -15946527 -15946531 -15946992#0 -15946992#1 -15946992#2 -225862971#0 -385581547#0 -385581547#1 -385581547#2 -385581547#3 -385581547#4 -400650689 100222833#1 15935787 15936518#0 15936518#1 15940647 15941921 15941976 15942004#1 15942004#2 15942004#3 15942004#4 15943346 15943558#0 15943558#1 15943558#2 15943558#3 15943558#4 15943558#5 15943558#6 15943558#7 15943558#8 15945534 15945657#0 15945657#1 15946511#0 15946511#1 15946511#2 15946511#3 15946527 15946531 15946992#0 15946992#1 15946992#2 385581546 385581547#0 385581547#1 385581547#2 385581547#3 385581547#4 385581547#5"/>
    <taz id="2_3" shape="12001.0,20001.0 19999.0,20001.0 19999.0,27999.0 12001.0,27999.0 12001.0,20001.0" color="255,0,218" edges="-100222833#0 -100222838#1 -107059238 -107059239 -15932173 -15932503 -15932641#0 -15932641#1 -15932641#2 -15932641#3 -15933378#0 -15933378#1 -15933378#2 -15933381#0 -15933679#0 -15933679#1 -15933679#2 -15933679#3 -15933679#4 -15933679#5 -15933679#6 -15933895 -15934026#0 -15934026#1 -15934026#2 -15934027 -15934249#0 -15934249#1 -15934249#2 -15934249#3 -15934567 -15935196 -15935537 -15935565 -15935759#0 -15935778#0 -15935778#1 -15935837#0 -15935837#1 -15936054#0 -15936054#1 -15936054#2 -15936482#0 -15936482#1 -15937027 -15937095 -15937271#0 -15937271#1 -15937271#2 -15937271#3 -15937271#4 -15937271#5 -15937271#6 -15937271#7 -15937271#8 -15937719 -15938042 -15939061 -15939488 -15940062#0 -15940062#1 -15940062#2 -15940360 -15940676#0 -15940676#1 -15941458 -15942091#0 -15942091#1 -15942091#2 -15942091#3 -15942091#4 -15942091#5 -15942091#6 -15942091#7 -15942507 -15942524#0 -15942524#1 -15942524#2 -15942524#3 -15942759 -15942879#1 -15942879#2 -15942879#3 -15942879#4 -15942879#5 -15943285#1 -15943285#2 -15943285#3 -15943285#4 -15943353 -15943626#1 -15943712 -15944006#0 -15944006#1 -15944006#2 -15944351#0 -15944351#1 -15944351#2 -15944351#3 -15944866 -15944876 -15944949 -15945305 -15945593#0 -15945734#0 -15945734#1 -15945797#0 -15945797#1 -15945797#2 -15946117#1 -15946935#0 -15946935#1 -15946935#2 -15946935#3 -15946935#5 -15946935#6 -15947042 -15947074#0 -15947074#1 -15947074#2 -15947074#3 -15947074#4 -15947074#5 -15947074#6 -15947074#7 -165656141 -165656142#0 -191264318 -225862967#0 -225862967#1 -225971375#0 -225971375#1 -225971377#0 -225971377#1 -257337708#0 -257337708#1 -257337708#2 -257337708#4 -257337709#0 -35109609#0 -367358146#0 -367358146#1 -367358146#2 -367358146#3 -367358146#4 -376025385#2 -376025385#3 -376025386 -376025388#0 -376025388#1 -376025391#2 -376025391#3 -376025391#4 -376025391#5 -376025391#6 -376025391#7 -432069660#0 -485224873 -485224874#0 -485224874#1 -485224874#2 -485224874#3 -485224874#4 -485224874#5 -485224875#0 -485224875#1 -485224875#2 -486228774 -48983911#2 -56395339#1 -56395339#2 -56395339#3 -56395339#4 -56395339#5 -56395339#6 -672669684 -672669685 -672669686 -672669687 -672669688#0 -672669688#1 -672669688#2 -91521720#0 -91521720#1 -91521720#2 -91521720#3 -91521720#4 -96661777 -96661778#0 -96661778#1 -96661779#0 -96661779#1 -96661779#2 -96744737#0 -96744737#1 100222838#1 107059238 107059239 15930454#0 15930454#2 15930466#0 15930466#2 15932173 15932641#0 15932641#1 15932641#2 15932641#3 15933378#0 15933378#1 15933378#2 15933381#0 15933381#1 15933389 15933679#0 15933679#1 15933679#2 15933679#3 15933679#4 15933679#5 15933679#6 15933895 15934026#0 15934026#1 15934026#2 15934027 15934249#0 15934249#1 15934249#2 15934249#3 15934567 15935196 15935537 15935565 15935759#0 15935778#0 15935778#1 15935778#2 15935837#0 15935837#1 15936054#0 15936054#1 15936054#2 15936482#0 15936482#1 15937027 15937095 15937271#0 15937271#1 15937271#2 15937271#3 15937271#4 15937271#5 15937271#6 15937271#7 15937271#8 15937719 15938042 15939061 15939488 15940062#0 15940062#1 15940062#2 15940360 15940676#0 15940676#1 15941458 15942091#0 15942091#1 15942091#2 15942091#3 15942091#4 15942091#5 15942091#6 15942091#7 15942507 15942524#0 15942524#1 15942524#2 15942524#3 15942759 15942879#1 15942879#2 15942879#3 15942879#4 15942879#5 15942879#6 15943285#1 15943285#2 15943285#3 15943285#4 15943353 15943626#1 15943712 15944006#0 15944006#1 15944006#2 15944351#0 15944351#1 15944351#2 15944351#3 15944866 15944876 15944949 15945305 15945593#0 15945734#0 15945734#1 15945740 15945797#0 15945797#1 15945797#2 15946117#1 15946121#0 15946121#1 15946121#2 15946935#0 15946935#1 15946935#2 15946935#3 15946935#5 15946935#6 15947042 15947074#0 15947074#1 15947074#2 15947074#3 15947074#4 15947074#5 15947074#6 15947074#7 15947208#0 15947208#1 15947208#2 15947208#3 165656140#1 165656140#2 165656140#3 165656140#4 165656141 165656142#0 191264318 225862967#0 225862967#1 225971375#0 225971375#1 225971377#1 225971377#2 257337705#0 257337705#1 257337706#0 257337706#1 257337706#2 257337708#0 257337708#1 257337708#2 257337708#4 257337709#0 35109609#0 35109609#1 367358146#0 367358146#1 367358146#2 367358146#3 367358146#4 367358146#5 376025385#2 376025385#3 376025388#0 376025388#1 376025391#2 376025391#3 376025391#4 376025391#5 376025391#6 376025391#7 400650702#1 432069660#0 43912695#2 43912695#3 43912695#4 485224873 485224874#0 485224874#1 485224874#2 485224874#3 485224874#4 485224874#5 485224875#0 485224875#1 485224875#2 486228774 48983911#2 56395331#19 56395331#20 56395331#21 56395331#22 56395339#1 56395339#2 56395339#3 56395339#4 56395339#5 56395339#6 56395339#7 672669684 672669685 672669686 672669687 672669688#0 672669688#1 672669688#2 90548274#4 90900145#1 90900145#1-AddedOnRampEdge 90900145#2 91521720#1 91521720#2 91521720#3 91521720#4 96661778#0 96661778#1 96661779#0 96661779#1 96661779#2 96661782#0 96661782#1 96744737#0 96744737#1"/>
    <taz id="2_4" shape="12001.0,28001.0 19999.0,28001.0 19999.0,35999.0 12001.0,35999.0 12001.0,28001.0" color="203,255,0" edges="-104505977#0 -104505977#1 -104505977#2 -104505984 -111874908#0 -111874908#1 -111874908#2 -111874908#3 -123759656 -123759657 -123759661#0 -123759661#1 -123759662#0 -123759662#1 -123759662#2 -123759662#3 -123759662#4 -123759662#5 -123759662#6 -123759663#0 -123759663#1 -123759663#2 -123759663#3 -123759665#0 -123759665#1 -123759665#2 -123759665#3 -123759666#0 -123759667#0 -123759667#1 -123759667#2 -123759668 -123759669#0 -123759669#1 -123759670 -123759671#0 -123759671#1 -123759671#2 -123759671#3 -123759672#0 -123759672#1 -123759672#2 -123759672#3 -123759672#4 -123759672#5 -123759672#6 -123759672#7 -123759672#8 -123759673#0 -123759673#1 -123759673#2 -123759673#3 -123759673#4 -123759673#5 -123759673#6 -123759674#0 -123759674#1 -123759674#2 -123759675#0 -123759675#1 -123759675#2 -123759676#0 -123759676#1 -123759676#2 -123759676#3 -123759680 -123759681 -123759682 -123759683 -123759684#0 -123759684#1 -123759684#2 -157635339#0 -157635339#1 -157635339#2 -157635340#0 -157635340#1 -157635341 -15930096#0 -15930101 -15930126#0 -15930215#0 -15930215#1 -15930215#2 -15930215#3 -15931496 -15931797 -15931829#2 -15931894 -15931959 -15931960 -15932139 -15932191 -15932228#0 -15932245#0 -15932245#1 -15932245#2 -15932304 -15932667 -15932678#0 -15932678#1 -15932678#2 -15932678#3 -15932755#1 -15932760#0 -15932760#1 -15932760#2 -15932776#0 -15932776#1 -15932776#2 -15932780#0 -15932884#0 -15932884#1 -15932898 -15933067#1 -15933101#0 -15933101#1 -15933101#2 -15933101#3 -15933101#4 -15933217#1 -15933217#2 -15933217#3 -15933303#0 -15933303#1 -15933303#2 -15933352 -15933359 -15933361 -15933374#0 -15933374#1 -15933374#2 -15933374#3 -15933374#4 -15933444#0 -15933444#1 -15933555#0 -15933555#1 -15933555#2 -15933555#3 -15933555#4 -15933555#5 -15933597#0 -15933597#1 -15933597#2 -15933663 -15933665#0 -15933665#1 -15933724#0 -15933724#1 -15933757#0 -15933757#1 -15933788 -15933815 -15933916#0 -15933916#1 -15933916#2 -15933916#3 -15933916#4 -15933916#5 -15933916#6 -15933916#7 -15933916#8 -15933938 -15933945#0 -15933945#1 -15933945#2 -15933945#3 -15933945#4 -15934013 -15934014 -15934018#0 -15934018#1 -15934018#2 -15934018#3 -15934018#4 -15934018#5 -15934029#0 -15934029#1 -15934103#0 -15934103#1 -15934127#0 -15934127#1 -15934179#0 -15934179#1 -15934179#10 -15934179#2 -15934179#3 -15934179#4 -15934179#5 -15934179#6 -15934179#7 -15934179#8 -15934179#9 -15934231 -15934323#0 -15934323#1 -15934363#1 -15934363#2 -15934363#3 -15934363#4 -15934363#5 -15934364#0 -15934364#1 -15934364#2 -15934467#0 -15934467#1 -15934467#2 -15934467#3 -15934468#1 -15934468#2 -15934468#4 -15934468#5 -15934482#0 -15934482#1 -15934482#2 -15934482#3 -15934490#0 -15934490#1 -15934598#0 -15934598#3 -15934598#5 -15934619#0 -15934619#1 -15934619#2 -15934619#3 -15934619#4 -15934623#0 -15934623#1 -15934623#2 -15934623#3 -15934623#4 -15934626 -15934652#0 -15934652#1 -15934672#0 -15934672#1 -15934806 -15934818#0 -15934818#1 -15934818#2 -15934823 -15934983#0 -15934983#1 -15934983#2 -15935077#0 -15935077#1 -15935077#2 -15935077#3 -15935103 -15935119 -15935121 -15935225#0 -15935225#1 -15935225#2 -15935225#3 -15935225#4 -15935225#5 -15935264 -15935270#0 -15935270#1 -15935270#2 -15935270#3 -15935270#4 -15935277 -15935335#0 -15935335#1 -15935414 -15935422#0 -15935422#1 -15935422#2 -15935432 -15935562 -15935618#0 -15935618#1 -15935618#2 -15935618#3 -15935618#4 -15935646#0 -15935646#1 -15935646#2 -15935646#3 -15935646#4 -15935670 -15935676 -15935680 -15935741 -15935823#0 -15935823#1 -15935823#2 -15935823#3 -15935918#0 -15935918#1 -15935918#2 -15935969#0 -15935969#3 -15935969#4 -15935969#5 -15935969#6 -15936009 -15936035 -15936040#0 -15936040#1 -15936040#2 -15936040#3 -15936040#4 -15936044#0 -15936044#1 -15936044#2 -15936249 -15936280#0 -15936280#1 -15936323#0 -15936541#0 -15936541#1 -15936541#2 -15936541#3 -15936541#4 -15936541#5 -15936620#0 -15936620#1 -15936620#2 -15936715 -15936800#0 -15936800#1 -15936800#2 -15937015#0 -15937015#1 -15937015#2 -15937015#3 -15937015#4 -15937031#0 -15937031#1 -15937031#2 -15937031#3 -15937033#0 -15937033#1 -15937062#0 -15937062#1 -15937062#2 -15937197 -15937225#0 -15937225#1 -15937225#2 -15937225#3 -15937225#4 -15937225#5 -15937225#6 -15937225#7 -15937249#0 -15937249#1 -15937249#2 -15937249#3 -15937249#4 -15937249#5 -15937249#6 -15937280 -15937399#0 -15937399#1 -15937399#2 -15937548 -15937587 -15937683 -15937695#0 -15937695#1 -15937695#2 -15937695#3 -15937695#4 -15937696#0 -15937696#1 -15937732 -15938027 -15938102#0 -15938102#1 -15938102#2 -15938102#3 -15938108 -15938111 -15938467 -15938488#0 -15938488#1 -15938488#2 -15938488#3 -15938488#4 -15938488#5 -15938488#6 -15938488#7 -15938488#8 -15938488#9 -15938519#0 -15938727 -15938769#2 -15938845#0 -15938845#1 -15938845#2 -15938849#3 -15938849#4 -15938912 -15938915#0 -15938940 -15939060#0 -15939060#1 -15939060#2 -15939248 -15939540#0 -15939698 -15939835#0 -15939835#1 -15939839#0 -15939839#1 -15939973#1 -15939973#2 -15939973#3 -15940097#0 -15940097#1 -15940097#2 -15940097#3 -15940097#4 -15940097#5 -15940256#0 -15940256#1 -15940256#10 -15940256#2 -15940256#3 -15940256#4 -15940256#5 -15940256#6 -15940256#7 -15940256#8 -15940256#9 -15940258 -15940288#0 -15940288#1 -15940292 -15940351#3 -15940381#0 -15940381#1 -15940611#0 -15940611#1 -15940611#2 -15940708#0 -15940708#1 -15940711 -15940823 -159408484#0 -159408484#1 -159408488#0 -159408488#1 -15941023#0 -15941023#1 -15941023#10 -15941023#11 -15941023#12 -15941023#13 -15941023#14 -15941023#16 -15941023#18 -15941023#2 -15941023#20 -15941023#3 -15941023#4 -15941023#5 -15941023#6 -15941023#8 -15941023#9 -15941027#0 -15941027#1 -15941027#2 -15941045#0 -15941045#1 -15941045#2 -15941045#3 -15941045#4 -15941124 -15941125 -15941240#0 -15941240#1 -15941240#2 -15941240#3 -15941240#4 -15941275#0 -15941345 -15941351#0 -15941351#1 -15941351#2 -15941385#0 -15941385#1 -15941385#2 -15941397#0 -15941397#1 -15941397#2 -15941454 -15941692#0 -15941692#1 -15941692#2 -15941767#0 -15941767#1 -15941767#2 -15941769#1 -15941809#0 -15941809#1 -15941809#10 -15941809#11 -15941809#12 -15941809#13 -15941809#14 -15941809#15 -15941809#16 -15941809#2 -15941809#3 -15941809#4 -15941809#5 -15941809#6 -15941809#7 -15941809#8 -15941819 -15941855#0 -15941855#1 -15941866#0 -15941866#1 -15941866#2 -15941866#3 -15941866#4 -15941866#5 -15941866#6 -15941866#7 -15941866#8 -15941923#0 -15941923#1 -15941923#2 -15941923#3 -15941923#4 -15941923#5 -15942056 -15942083#0 -15942083#1 -15942083#2 -15942083#3 -15942178#1 -15942178#2 -15942178#3 -15942178#4 -15942209#0 -15942209#1 -15942209#2 -15942209#3 -15942209#4 -15942287 -15942294 -15942325#0 -15942325#1 -15942325#2 -15942325#3 -15942506 -15942538#0 -15942538#1 -15942538#2 -15942538#3 -15942538#4 -15942538#5 -15942538#6 -15942538#7 -15942711#1 -15942711#2 -15942711#3 -15942851 -15943021#0 -15943100 -15943231#0 -15943231#1 -15943231#2 -15943237#0 -15943237#1 -15943285#0 -15943367 -15943417 -15943567#0 -15943567#1 -15943599#0 -15943599#1 -15943599#2 -15943599#3 -15943757#0 -15943830#0 -15943830#1 -15943830#2 -15943830#3 -15943830#4 -15943842 -15943860#0 -15943860#1 -15943860#2 -15943950 -15943963 -15943998#0 -15943998#1 -15943998#2 -15943998#3 -15944005#0 -15944005#1 -15944005#2 -15944158 -15944317#0 -15944343 -15944383 -15944385#0 -15944385#1 -15944400#2 -15944410#0 -15944410#1 -15944410#2 -15944410#3 -15944536#0 -15944547 -15944711#0 -15944711#1 -15944711#2 -15944711#3 -15944711#4 -15944711#5 -15944862#0 -15944906#0 -15944906#1 -15944906#10 -15944906#11 -15944906#12 -15944906#14 -15944906#15 -15944906#16 -15944906#17 -15944906#18 -15944906#19 -15944906#3 -15944906#4 -15944906#5 -15944906#6 -15944906#7 -15944906#8 -15944906#9 -15944913#0 -15944913#1 -15944916#0 -15944916#1 -15944916#2 -15944919 -15944922 -15944930 -15944932 -15944934 -15944940#0 -15944940#1 -15944940#2 -15944940#3 -15944940#4 -15944940#5 -15944944#0 -15944944#1 -15944945 -15944951 -15944957#0 -15944957#1 -15944957#2 -15944957#3 -15944961#0 -15944961#1 -15944963 -15945164#0 -15945164#1 -15945170#0 -15945170#1 -15945170#2 -15945170#3 -15945415#0 -15945442#0 -15945442#1 -15945442#2 -15945442#3 -15945442#4 -15945442#5 -15945462#0 -15945462#1 -15945710 -15945783#0 -15945783#1 -15945783#10 -15945783#11 -15945783#2 -15945783#3 -15945783#4 -15945783#6 -15945783#7 -15945783#8 -15945783#9 -15945792 -15945844#0 -15945844#1 -15945844#2 -15945951 -15945988#0 -15945988#1 -15945994 -15946075#2 -15946075#4 -15946075#5 -15946075#6 -15946075#7 -15946075#8 -15946075#9 -15946085#0 -15946085#1 -15946117#0 -15946145 -15946173#0 -15946173#1 -15946173#2 -15946182 -15946184#0 -15946184#1 -15946184#2 -15946186 -15946218#0 -15946218#1 -15946384#0 -15946384#1 -15946384#2 -15946420#0 -15946420#1 -15946575#1 -15946575#2 -15946605#1 -15946605#2 -15946605#3 -15946605#4 -15946605#5 -15946665#0 -15946665#1 -15946665#10 -15946665#11 -15946665#12 -15946665#13 -15946665#14 -15946665#15 -15946665#16 -15946665#2 -15946665#3 -15946665#4 -15946665#5 -15946665#6 -15946665#7 -15946665#8 -15946665#9 -15946668 -15946748#0 -15946748#1 -15946805#0 -15946805#1 -15946805#2 -15946805#3 -15946805#4 -15946904 -15946950#0 -15946950#1 -15946950#2 -15946960#0 -15946960#1 -15947024 -15947081 -15947172#1 -164055840 -164055938#0 -164055938#1 -176375146#0 -176375146#1 -176375146#2 -176375146#3 -176375150 -179417372#0 -179417372#1 -187491073#1 -187491073#2 -187491073#3 -187491073#4 -187491073#5 -187491073#6 -187491073#7 -187491073#8 -187521876 -187521877#0 -187521877#1 -187521878#0 -187521878#1 -187795361#0 -187795361#1 -187795361#2 -187795550 -187799385 -187799829#1 -187800576#0 -187800576#1 -187800576#2 -187800576#3 -187800576#4 -187801920 -187803625#0 -187803625#1 -187803625#2 -187803625#3 -187803625#4 -187803625#5 -187803625#6 -187803625#7 -187861585#0 -187861585#1 -190379875#1 -190379876#1 -191256170#12 -191256170#13 -191256170#14 -191256170#15 -191256170#16 -191256170#17 -191256170#18 -252387422#0 -252387422#1 -252387422#2 -252387423 -252387424 -252387575#0 -252387575#1 -252387575#2 -252387576 -261147331#4 -261147331#6 -261147331#7 -261147331#8 -261147331#9 -288394030 -299527213 -299527215 -329363452#0 -329363452#1 -329363452#2 -329363452#3 -336023515#0 -336023515#1 -336023516 -336930938#1 -336930938#2 -336930938#3 -336930938#4 -359624031 -364975744#0 -364975744#1 -364976667#0 -364976667#1 -367358147#0 -367358147#1 -367358147#2 -367358147#3 -367358147#4 -367358147#5 -367358147#6 -367358147#7 -398926480#0 -398926480#1 -398926480#2 -398926481 -398926486 -398926491#0 -398926491#1 -398926491#2 -398926491#3 -398926491#4 -398926492 -398926494 -398926496 -398926497#0 -398926497#1 -398926497#2 -398926497#3 -398926499 -398926501#0 -398926501#1 -400650672#0 -400650672#1 -423953209#0 -423953209#1 -424807354#0 -424807354#1 -424807354#2 -424809487 -424810079 -424857572#0 -43032846#0 -43032846#1 -43032847#0 -43032847#1 -43032847#2 -43032847#3 -43032847#4 -43912559 -463520968 -463520969 -463520970 -463520971#0 -463520971#1 -463520972#0 -463520972#1 -463520972#2 -463520973#0 -463520973#1 -463520973#2 -466817144 -466817152#0 -466817152#1 -471341895#10 -471341895#11 -471341895#12 -471341895#13 -480946719 -480946722#0 -480946722#1 -4818549#1 -4818549#2 -4818549#3 -48983911#0 -48983911#1 -537181249 -56395669#1 -584266431 -593800601#0 -593800601#1 -599449083 -599449084#0 -599449084#1 -599449085#0 -599449085#1 -599449085#2 -599449086#0 -599449086#1 -599449087 -599450043#0 -599450043#1 -599450044 -599450045 -599450046 -599450047 -599450048 -599889889 -599889890 -599889892 -60184552#0 -60184552#1 -60184552#2 -60472180 -60472190#0 -60472190#1 -60472190#2 -60472197 -60472233#0 -60472233#1 -60472236#0 -60472236#1 -60472236#2 -60472236#3 -60472236#4 -60474123#0 -60474123#1 -60474123#2 -60578590#0 -60578590#1 -60578590#2 -60578593#1 -60578594#0 -60578594#1 -60578594#2 -60578620#0 -60578620#1 -60578620#2 -60578620#5 -60578620#7 -60578893#0 -60578893#1 -634317754#0 -634317754#1 -634317756 -637330343 -637334361#0 -637334361#1 -637334362#0 -637334362#1 -637334363 -637334366#0 -637334366#1 -637334367 -637335403#0 -637335403#1 -637335403#2 -637335403#3 -637335404#0 -637335404#1 -637335405 -637335406 -637335407 -637652588#0 -637652588#1 -637652588#2 -672572389#0 -672572389#1 -672572389#2 -672572389#3 -672572390 -672573183#0 -672573184#0 -672573184#1 -672573184#2 -672573185 -672573186 -672573188 -672573189 -672573190 -672573191#0 -672573191#1 -672573192 -672573193 -672573194 -672573195 -672573196#0 -672573196#1 -672573197 -672573198 -672573229#0 -672573229#1 -672573645 -672573646#0 -672573646#1 -672573646#2 -672573646#3 -672573647 -672573648#0 -672573648#1 -672573649 -672573650 -672573651 -672573652 -672573653#0 -672573653#1 -672573653#2 -672662871 -672662872#0 -672662872#1 -672669677 -672669682#0 -672669682#1 -672669682#2 -672669683 -67285951#0 -67285951#1 -67285952#0 -67285952#1 -67285952#2 -67285952#3 -682105181#0 -682105181#1 -682105181#2 -687403364#0 -687403365#0 -687403365#1 -687403365#2 -687403365#3 -688916393#0 -688916393#1 -689787234 -81042928#0 -81042928#1 -81042928#2 -83130641 -83130642 -83130647#0 -83130647#1 -83130647#2 -83130647#3 -84269347 -84272384#0 -84272384#1 -84272384#2 -84272384#3 -84272384#4 -84272384#5 -84272419#1 -84272419#2 -84272419#3 -84272419#5 -84272419#6 -90954914#0 -90954914#1 -90954914#2 -90954915#1 -90954916#1 -91521720#5 -91521721#0 -91521721#1 -91521721#2 -91521721#3 -96467962 -96467967#1 -96486939#0 -96486939#1 -96486940 -96486944 -96486948#0 -96486948#1 -96486948#2 -96486948#3 -96486951#0 -96486951#1 -96486956 -96486960 -96652220#3 -96652220#4 104505977#0 104505977#1 104505977#2 111874908#1 111874908#2 111874908#3 111874908#4 118528813 118528876#0 118528876#1 118528876#2 123759656 123759657 123759661#0 123759661#1 123759662#0 123759662#1 123759662#2 123759662#3 123759662#4 123759662#5 123759662#6 123759663#0 123759663#1 123759663#2 123759663#3 123759663#4 123759664 123759665#0 123759665#1 123759665#2 123759665#3 123759666#0 123759666#1 123759667#0 123759667#1 123759667#2 123759669#0 123759669#1 123759670 123759671#1 123759671#2 123759671#3 123759672#1 123759672#2 123759672#3 123759672#4 123759672#5 123759672#6 123759672#7 123759672#8 123759673#1 123759673#2 123759673#3 123759673#4 123759673#5 123759673#6 123759673#7 123759674#1 123759674#2 123759674#3 123759675#1 123759675#2 123759676#0 123759676#1 123759676#2 123759676#3 123759680 123759682 123759683 123759684#0 123759684#1 123759684#2 157635339#0 157635339#1 157635339#2 157635340#0 157635340#1 157635341 15930096#0 15930096#1 15930101 15930126#0 15930196#0 15930196#1 15930196#1-AddedOnRampEdge 15930215#0 15930215#1 15930215#2 15930215#3 15930599 15930636 15930655 15930814 15931083 15931085 15931102 15931198 15931344 15931374 15931398 15931496 15931712 15931753 15931775 15931797 15931829#2 15931892 15931894 15931916 15931959 15931960 15931974 15931978#0 15932051#0 15932139 15932191 15932228#1 15932232 15932245#0 15932245#1 15932245#2 15932304 15932667 15932678#0 15932678#1 15932678#2 15932678#3 15932678#4 15932755#1 15932760#0 15932760#1 15932760#2 15932776#0 15932776#1 15932776#2 15932780#0 15932780#1 15932884#0 15932884#1 15932898 15933067#1 15933101#0 15933101#1 15933101#2 15933101#3 15933101#4 15933217#1 15933217#2 15933217#3 15933303#0 15933303#1 15933303#2 15933352 15933361 15933374#0 15933374#1 15933374#2 15933374#3 15933374#4 15933444#0 15933444#1 15933555#0 15933555#1 15933555#2 15933555#3 15933555#4 15933555#5 15933555#6 15933597#0 15933597#1 15933597#2 15933663 15933665#0 15933665#1 15933724#0 15933724#1 15933757#0 15933757#1 15933788 15933815 15933916#0 15933916#1 15933916#2 15933916#3 15933916#4 15933916#5 15933916#6 15933916#7 15933916#8 15933938 15933945#0 15933945#1 15933945#2 15933945#3 15933945#4 15933945#5 15934013 15934014 15934018#0 15934018#1 15934018#2 15934018#3 15934018#4 15934018#5 15934029#0 15934029#1 15934103#0 15934103#1 15934127#0 15934127#1 15934127#2 15934179#1 15934179#10 15934179#11 15934179#2 15934179#3 15934179#4 15934179#5 15934179#6 15934179#7 15934179#8 15934179#9 15934231 15934323#0 15934323#1 15934363#1 15934363#2 15934363#3 15934363#4 15934363#5 15934364#0 15934364#1 15934364#2 15934467#0 15934467#1 15934467#2 15934467#3 15934468#1 15934468#2 15934468#4 15934468#5 15934482#0 15934482#1 15934482#2 15934482#3 15934490#0 15934490#1 15934598#3 15934598#5 15934601#0 15934601#2 15934601#3 15934619#0 15934619#1 15934619#2 15934619#3 15934619#4 15934623#0 15934623#1 15934623#2 15934623#3 15934623#4 15934626 15934652#0 15934652#1 15934672#0 15934672#1 15934806 15934818#0 15934818#1 15934818#2 15934823 15934983#0 15934983#1 15934983#2 15935077#0 15935077#1 15935077#2 15935077#3 15935103 15935119 15935121 15935188 15935225#1 15935225#2 15935225#3 15935225#4 15935225#5 15935233#2 15935233#3 15935233#4 15935233#5 15935264 15935270#0 15935270#1 15935270#2 15935270#3 15935270#4 15935277 15935335#0 15935335#1 15935414 15935422#0 15935422#1 15935422#2 15935432 15935562 15935563#0 15935618#0 15935618#1 15935618#2 15935618#3 15935618#4 15935618#5 15935646#0 15935646#1 15935646#2 15935646#3 15935646#4 15935670 15935676 15935680 15935741 15935823#0 15935823#1 15935823#2 15935823#3 15935918#0 15935918#1 15935918#2 15935969#0 15935969#3 15935969#4 15935969#5 15935969#6 15936009 15936035 15936040#1 15936040#2 15936040#3 15936040#4 15936044#0 15936044#1 15936044#2 15936134 15936249 15936280#0 15936280#1 15936323#0 15936541#0 15936541#1 15936541#2 15936541#3 15936541#4 15936541#5 15936620#0 15936620#1 15936620#2 15936620#3 15936715 15936800#0 15936800#1 15936800#2 15937015#0 15937015#1 15937015#2 15937015#3 15937015#4 15937031#0 15937031#1 15937031#2 15937031#3 15937033#0 15937033#1 15937062#0 15937062#1 15937062#2 15937197 15937225#0 15937225#1 15937225#2 15937225#3 15937225#4 15937225#5 15937225#6 15937225#7 15937249#1 15937249#2 15937249#3 15937249#4 15937249#5 15937249#6 15937280 15937399#0 15937399#1 15937399#2 15937548 15937587 15937683 15937695#0 15937695#1 15937695#2 15937695#3 15937695#4 15937696#0 15937696#1 15937732 15938027 15938102#0 15938102#1 15938102#2 15938102#3 15938108 15938111 15938467 15938488#0 15938488#1 15938488#2 15938488#3 15938488#4 15938488#5 15938488#6 15938488#7 15938488#8 15938488#9 15938519#0 15938727 15938769#2 15938845#0 15938845#1 15938845#2 15938849#3 15938849#4 15938915#1 15938940 15939060#0 15939060#1 15939060#2 15939248 15939540#0 15939698 15939835#0 15939835#1 15939839#0 15939839#1 15939973#1 15939973#2 15939973#3 15940044#0 15940097#0 15940097#1 15940097#2 15940097#3 15940097#4 15940097#5 15940256#0 15940256#1 15940256#10 15940256#2 15940256#3 15940256#4 15940256#5 15940256#6 15940256#7 15940256#8 15940256#9 15940258 15940288#0 15940288#1 15940292 15940351#3 15940381#0 15940381#1 15940611#0 15940611#1 15940611#2 15940708#0 15940708#1 15940711 15940823 159408484#1 159408484#2 159408488#0 159408488#1 15941023#0 15941023#1 15941023#10 15941023#11 15941023#12 15941023#13 15941023#14 15941023#16 15941023#18 15941023#2 15941023#20 15941023#3 15941023#4 15941023#5 15941023#6 15941023#8 15941023#9 15941027#1 15941027#2 15941045#0 15941045#1 15941045#2 15941045#3 15941045#4 15941124 15941125 15941240#0 15941240#1 15941240#2 15941240#3 15941240#4 15941275#0 15941351#0 15941351#1 15941351#2 15941385#0 15941385#1 15941385#2 15941397#0 15941397#1 15941397#2 15941454 15941692#0 15941692#1 15941692#2 15941767#0 15941767#1 15941767#2 15941769#1 15941809#0 15941809#1 15941809#10 15941809#11 15941809#12 15941809#13 15941809#14 15941809#15 15941809#16 15941809#2 15941809#3 15941809#4 15941809#5 15941809#6 15941809#7 15941809#8 15941819 15941855#0 15941855#1 15941858#0 15941858#1 15941866#0 15941866#1 15941866#2 15941866#3 15941866#4 15941866#5 15941866#6 15941866#7 15941866#8 15941923#0 15941923#1 15941923#2 15941923#3 15941923#4 15941923#5 15942056 15942083#0 15942083#1 15942083#2 15942083#3 15942178#1 15942178#2 15942178#3 15942178#4 15942209#0 15942209#1 15942209#2 15942209#3 15942209#4 15942287 15942294 15942325#0 15942325#1 15942325#2 15942325#3 15942325#4 15942506 15942538#1 15942538#2 15942538#3 15942538#4 15942538#5 15942538#6 15942538#7 15942711#1 15942711#2 15942711#3 15942851 15943021#0 15943021#1 15943100 15943231#0 15943231#1 15943231#2 15943237#0 15943237#1 15943237#2 15943285#0 15943367 15943417 15943567#0 15943567#1 15943599#0 15943599#1 15943599#2 15943599#3 15943757#0 15943830#0 15943830#1 15943830#2 15943830#3 15943830#4 15943842 15943860#0 15943860#1 15943860#2 15943950 15943963 15943998#0 15943998#1 15943998#2 15943998#3 15944005#0 15944005#1 15944005#2 15944158 15944317#0 15944343 15944383 15944385#0 15944385#1 15944400#2 15944410#0 15944410#1 15944410#2 15944410#3 15944536#0 15944547 15944711#0 15944711#1 15944711#2 15944711#3 15944711#4 15944711#5 15944832 15944862#0 15944862#1 15944906#0 15944906#1 15944906#10 15944906#11 15944906#12 15944906#14 15944906#15 15944906#16 15944906#17 15944906#18 15944906#19 15944906#3 15944906#4 15944906#5 15944906#6 15944906#7 15944906#8 15944906#9 15944913#0 15944913#1 15944916#0 15944916#1 15944916#2 15944919 15944922 15944930 15944932 15944934 15944940#0 15944940#1 15944940#2 15944940#3 15944940#4 15944940#5 15944944#0 15944944#1 15944945 15944951 15944957#0 15944957#1 15944957#2 15944957#3 15944961#1 15944963 15945164#1 15945170#0 15945170#1 15945170#2 15945170#3 15945415#1 15945442#0 15945442#1 15945442#2 15945442#3 15945442#4 15945442#5 15945462#0 15945462#1 15945710 15945783#0 15945783#1 15945783#10 15945783#11 15945783#2 15945783#3 15945783#4 15945783#6 15945783#7 15945783#8 15945783#9 15945792 15945844#0 15945844#1 15945844#2 15945951 15945988#0 15945988#1 15945988#2 15945994 15946075#4 15946075#5 15946075#6 15946075#7 15946075#8 15946075#9 15946085#0 15946085#1 15946117#0 15946145 15946173#0 15946173#1 15946173#2 15946182 15946184#0 15946184#1 15946184#2 15946186 15946218#0 15946218#1 15946384#0 15946384#1 15946384#2 15946420#0 15946420#1 15946575#1 15946575#2 15946605#1 15946605#2 15946605#3 15946605#4 15946605#5 15946665#0 15946665#1 15946665#10 15946665#11 15946665#12 15946665#13 15946665#14 15946665#15 15946665#16 15946665#2 15946665#3 15946665#4 15946665#5 15946665#6 15946665#7 15946665#8 15946665#9 15946668 15946748#0 15946748#1 15946748#2 15946805#0 15946805#1 15946805#2 15946805#3 15946805#4 15946904 15946950#0 15946950#1 15946950#2 15946960#0 15946960#1 15947024 15947081 15947172#1 164055840 164055938#0 164055938#1 175955549 175955550 176375146#0 176375146#1 176375146#2 176375146#3 176375150 178710685#1 179417285#0 179417285#1 179417285#2 179417285#3 