<tazs>
    <taz id="0_1" shape="-1499.0,1501.0 1499.0,1501.0 1499.0,4499.0 -1499.0,4499.0 -1499.0,1501.0" color="0,255,218" edges="-11503212#0 -11503212#1 -11505266 -11506151 -11507023#1 -11507023#2 -11507023#3 -11510655 -11512449#0 -11512449#1 -11512449#2 -11513233#1 -11516766 -11517064 -11517325#0 -11517325#1 -436295362#1 -436295363 -436295364#0 -436295364#1 11503212#0 11503212#1 11505266 11506151 11507023#1 11507023#2 11507023#3 11510655 11512449#0 11512449#1 11512449#2 11513233#1 11516766 11517064 11517325#0 11517325#1 436295362#1 436295363 436295364#0 436295364#1"/>
    <taz id="0_2" shape="-1499.0,4501.0 1499.0,4501.0 1499.0,7499.0 -1499.0,7499.0 -1499.0,4501.0" color="255,25,0" edges="-100763328#0 -100763328#1 -100763328#2 -100763347#0 -100763347#1 -11502471#0 -11503187#0 -11503187#1 -11503187#2 -11504328#0 -11504823#2 -11504823#3 -11504823#4 -11504823#5 -11504823#6 -11504823#7 -11504823#8 -11504823#9 -11505523#0 -11505523#1 -11505523#2 -11505523#3 -11505905 -11506002#1 -11506515#5 -11506515#6 -11506515#7 -11506515#8 -11506795#2 -11506795#3 -11506795#4 -11506795#5 -11506826#0 -11506826#1 -11506826#2 -11506929#1 -11506929#2 -11507159#0 -11507159#1 -11508291#0 -11508291#1 -11508291#2 -11508746 -11509668#0 -11509668#1 -11509668#2 -11509820#0 -11509820#1 -11510642#0 -11510642#1 -11510648 -11510731 -11510850 -11510929#0 -11510929#1 -11510929#2 -11510929#3 -11510951#0 -11510951#1 -11510951#2 -11510951#3 -11510951#4 -11510951#5 -11511232 -11511552#0 -11511552#1 -11511717#0 -11511717#1 -11512532#0 -11512532#1 -11512543#0 -11513347 -11513423#0 -11513423#1 -11513423#2 -11514717 -11515860#2 -11515860#3 -11515907 -11515908#0 -11515908#1 -11516788#0 -11516788#1 -11516788#2 -11516788#3 -11516788#4 -11516788#5 -11516788#6 -11516788#8 -11517173 -11517803 -11518249 -11518373#0 -11518373#1 -11518373#2 -11518373#3 -11518373#4 -11518374 -11518696 -11518953#0 -11518953#1 -11518953#2 -11519907#0 -11519907#1 -148579272#0 -148579272#1 -177598105#0 -177598105#1 -177598105#2 -177598105#3 -177598105#4 -177598112#0 -177598571 -251432635#0 -251432635#1 -251432635#2 -251432640 -251432641#1 -251432657#0 -251432657#1 -251432660 -286133138 -290036619 -290036626 -290037779 -290048544 -290048545 -290048546 -29468963#0 -29468963#1 -29468963#2 -29468963#3 -294896455 -317706220 -317706221#0 -317706221#1 -317706221#2 -317706221#3 -317706227#0 -317706227#1 -325550854#0 -325550854#1 -346951979 -357843851 -358965072#0 -358965072#1 -358965072#2 -361459915 -361615644#0 -361615644#1 -361615644#2 -361615644#3 -456852433 -512479204 -512479206 -512479213 -53057508#2 -53057508#3 -53057508#4 -541143817#0 -541143817#1 -541143817#2 -541160957#2 -580418030 -592216164#0 -692536314#0 -692536314#1 -692536314#2 -692536314#3 -692536314#4 -692536314#5 -692536314#6 -692536315 -692536316 -692536317 -82556201#3 -82556201#4 -82556201#5 -82556201#6 -82556201#7 -82556203#1 -89183100 100763315 100763324 100763328#0 100763328#1 100763328#2 100763331 100763336 100763347#0 100763347#1 11502471#0 11502471#1 11503187#1 11503187#2 11503189 11504328#0 11504328#1 11504445 11504453#0 11504453#1 11504823#2 11504823#3 11504823#4 11504823#5 11504823#6 11504823#7 11504823#8 11504823#9 11505523#1 11505523#2 11505523#3 11505905 11506002#1 11506515#5 11506515#6 11506515#7 11506515#8 11506795#2 11506795#3 11506795#4 11506795#5 11506826#1 11506826#2 11506929#1 11506929#2 11507159#0 11507159#1 11508291#1 11508291#2 11508746 11509668#0 11509668#1 11509668#2 11509820#0 11509820#1 11510642#0 11510642#1 11510648 11510731 11510929#0 11510929#1 11510929#2 11510929#3 11510951#0 11510951#1 11510951#2 11510951#3 11510951#4 11510951#5 11511231 11511232 11511552#0 11511552#1 11511717#0 11511717#1 11512532#0 11512532#1 11512543#1 11513347 11513423#0 11513423#1 11513423#2 11514717 11515860#2 11515860#3 11515907 11515908#0 11515908#1 11516788#1 11516788#2 11516788#3 11516788#4 11516788#5 11516788#6 11516788#8 11517173 11517803 11518373#0 11518373#1 11518373#2 11518373#3 11518373#4 11518374 11518953#0 11518953#1 11518953#2 11519907#0 11519907#1 115239781#0 115239781#1 115239781#1-AddedOnRampEdge 115240595#1 115240665#0 115240665#1 115240665#1-AddedOnRampEdge 115240665#2 115240665#3 115240665#4 115240665#4-AddedOffRampEdge 131940195#1 131940195#2 131940195#2-AddedOnRampEdge 132577630#0 132577630#1 140700556#0 140700556#1 140700556#1-AddedOnRampEdge 148579267 148579269 148579272#0 148579272#1 177598088#0 177598088#1 177598088#2 177598088#3 177598088#4 177598088#5 177598088#6 177598088#7 177598089#1 177598089#2 177598089#3 177598089#4 177598089#5 177598089#6 177598090#0 177598090#1 177598090#1-AddedOffRampEdge 177598090#2 177598090#4 177598092 177598093#1 177598093#2 177598102#0 177598104 177598105#0 177598105#1 177598105#2 177598105#3 177598105#4 177598107#0 177598107#1 177598107#2 177598107#3 177598110#1 177598112#0 177598114 177598118 177598571 177598572 177598573 177598574 177598575 177598577#0 177598577#1 177598578#1 177598578#2 177598578#3 177598578#4 177598582 177598585 177598804 177598805#0 177598805#1 177598805#2 177598805#3 182705404 182705405 187901627 187901633 251432627 251432628 251432630 251432631#0 251432631#1 251432631#1-AddedOnRampEdge 251432631#2 251432631#2-AddedOnRampEdge 251432633 251432635#0 251432635#1 251432635#2 251432640 251432641#1 251432657#0 251432657#1 251432660 251951829 251951835 251951837 251951840 251951851 251951856 251951861 251951869 251951873 251951892#0 251951892#1 251951895 251951898 251951906#0 251951906#1 251951906#2 251951906#3 251951912 251951912-AddedOffRampEdge 252032864 252032874 252079070#0 252079070#1 252079737#0 252079737#1 286133138 290036619 290036625#0 290036625#1 290036626 290037779 290048544 290048545 290048546 29438804#1 29438804#3 29438804#4 29468963#0 29468963#1 29468963#2 29468963#3 29472224 294896455 317706220 317706221#0 317706221#1 317706221#2 317706221#3 317706222#0 317706222#0-AddedOffRampEdge 317706222#1 317706226#1 317706226#2 317706227#0 317706227#1 317706228#0 317706228#1 325550854#0 325550854#1 346951979 357843851 358965072#1 358965072#2 361459915 361615644#0 361615644#1 361615644#2 361615644#3 367129390 367135232 38308090#0 38308090#1 38308090#2 38308090#2-AddedOnRampEdge 38308091 38308092 38308093 38308095 38308096#0 38308096#1 38308100#0 38308100#0-AddedOnRampEdge 38308100#1 38308100#1-AddedOnRampEdge 38308103 38308103-AddedOnRampEdge 38308106#1 38308106#1-AddedOnRampEdge 383286570 383289255 383289256 383289257 456852433 484376381 484376381-AddedOffRampEdge 50321110 50321110-AddedOffRampEdge 50321112 50321121 50321126 505709095 505709096 509322002 512479203 512479204 512479206 512479207 512479208 512479211 512479212 512479213 512479214 512479215 53057508#3 53057508#4 53057509 535714972 541143817#0 541143817#1 541143817#2 541160957#2 54265273 54265280#0 54265280#1 54265283#0 54265283#1 54265283#1-AddedOffRampEdge 54265283#2 54265305 54265307#0 54265307#1 580418030 592150022 592150023 592214924#1 592214924#2 592214924#3 592214924#4 592214926 592215093#0 592215093#1 592215959 592215962#0 592215962#1 592215965 592215967#0 592215967#1 592215968 592215969#1 592215969#2 592215969#3 592215977 592215982 592216164#0 692536314#0 692536314#1 692536314#2 692536314#3 692536314#4 692536314#5 692536314#6 692536315 692536316 692536317 82556201#3 82556201#4 82556201#5 82556201#6 82556201#7 82556202#0 82556202#1 82556202#3 82556202#5 82556202#6 82556202#7 82556202#8 82556203#1 88783755 89183100 89183101#0 89183101#1 89183102 89183104 89183105#0 89183105#1 89183106#0 89183106#1 89183107 89183112"/>
    <taz id="0_3" shape="-1499.0,7501.0 1499.0,7501.0 1499.0,10499.0 -1499.0,10499.0 -1499.0,7501.0" color="255,181,0" edges="-11502619 -11504803 -11504804 -11505043 -11507060#1 -11507060#2 -11507060#3 -11507060#4 -11507060#5 -11508928 -11509763 -11509863#2 -11509863#3 -11509863#4 -11509863#5 -11510370#0 -11510370#1 -11510743 -11512376#0 -11512376#1 -11512376#2 -11512376#3 -11512473 -11513969#1 -11513969#2 -11514742 -11516195#0 -11516195#1 -11516474 -11517114 -11517469#0 -11517469#1 -11517469#2 -11518172 -11518932 -11519645 -132577729#0 -132577729#1 -229845393#0 -229845393#1 -229845393#2 -251434975#0 -251434975#1 -251434976#0 -251434976#1 -251434976#2 -251434976#3 -251434977#0 -251434977#1 -251434978 -251434979#0 -251434979#1 -251434982#1 -251434982#2 -251434982#3 -251434982#4 -251434983#0 -251434983#1 -251434983#2 -357489083 -361615644#4 -361615644#5 -361615644#6 -541143834#1 -541143834#2 -541143838#0 -541143838#1 -541143838#2 -54265264 114751080#2 11502619 11504803 11504804 11505043 11507060#1 11507060#2 11507060#3 11507060#4 11507060#5 11508928 11509763 11509863#2 11509863#3 11509863#4 11509863#5 11510370#0 11510370#1 11510743 11512376#0 11512376#1 11512376#2 11512376#3 11512473 11513969#1 11513969#2 11514742 11516195#0 11516195#1 11516474 11517114 11517469#0 11517469#1 11517469#2 11518172 11518932 11519645 132577554#0 132577554#2 132577554#3 132577555#0 132577555#1 132577555#2 132577555#3 132577555#4 132577555#5 132577627#0 132577627#1 132577729#0 132577729#1 229845393#0 229845393#1 229845393#2 251434970 251434971#0 251434971#1 251434972 251434973#0 251434973#1 251434973#2 251434973#3 251434975#0 251434975#1 251434976#0 251434976#1 251434976#2 251434976#3 251434977#0 251434977#1 251434978 251434979#0 251434979#1 251434981 251434982#1 251434982#2 251434982#3 251434982#4 251434983#0 251434983#1 251434983#2 294896451#0 294896451#2 357489083 361615644#4 361615644#5 361615644#6 372324998 541143834#1 541143834#2 541143838#0 541143838#1 541143838#2 54265264 54265268#0 54265268#1 632104357#0 632104358#1 633484604#1"/>
    <taz id="1_1" shape="1501.0,1501.0 4499.0,1501.0 4499.0,4499.0 1501.0,4499.0 1501.0,1501.0" color="255,0,2" edges="-114751032#18 -114751042#0 -114751042#1 -114751042#2 -114751042#3 -114751042#4 -114751062#0 -114751062#1 -11502799 -11502801 -11503132#2 -11503405 -11504332 -11504600#0 -11504600#1 -11504600#11 -11504600#13 -11504600#14 -11504600#15 -11504600#16 -11504600#17 -11504600#4 -11504600#5 -11504600#6 -11504600#7 -11504927 -11505103 -11505141 -11505536#0 -11505536#1 -11505536#2 -11505578 -11505703 -11505787 -11505998#1 -11506337 -11506382#0 -11506382#1 -11506668#0 -11506668#1 -11506668#2 -11506668#3 -11506668#4 -11507033 -11507153#0 -11507153#1 -11507153#2 -11507368#0 -11507368#1 -11507368#2 -11507368#3 -11507368#4 -11507368#5 -11507368#6 -11507737 -11507740#0 -11507740#1 -11508006 -11508089#17 -11508567#0 -11508567#1 -11508567#2 -11508567#3 -11508567#4 -11508567#6 -11509120 -11509194#0 -11509194#1 -11509194#12 -11509194#13 -11509194#16 -11509194#2 -11509194#20 -11509194#21 -11509194#24 -11509194#25 -11509194#3 -11509194#4 -11509194#5 -11509194#7 -11509194#8 -11509194#9 -11509571#0 -11509571#1 -11509571#2 -11509571#3 -11509571#4 -11509571#5 -11509571#6 -11509571#7 -11509571#8 -11509573#0 -11509585#0 -11509585#1 -11509585#2 -11509585#3 -11509585#4 -11509585#5 -11509585#6 -11509585#7 -11509585#8 -11509585#9 -11509621#0 -11509621#1 -11509928#0 -11509928#1 -11509928#10 -11509928#11 -11509928#3 -11509928#5 -11509928#6 -11509928#7 -11509928#8 -11509928#9 -11510131#0 -11510131#1 -11510131#2 -11510131#3 -11510131#4 -11510131#5 -11510131#6 -11510151 -11510487 -11510500#1 -11510500#2 -11510500#3 -11510533 -11510601 -11510708#0 -11510708#1 -11510708#2 -11510830#0 -11510830#1 -11510830#2 -11510830#3 -11510830#4 -11510830#5 -11510979#0 -11510979#1 -11510979#10 -11510979#11 -11510979#12 -11510979#14 -11510979#15 -11510979#16 -11510979#17 -11510979#18 -11510979#19 -11510979#2 -11510979#22 -11510979#23 -11510979#24 -11510979#25 -11510979#27 -11510979#29 -11510979#30 -11510979#32 -11510979#4 -11510979#5 -11510979#6 -11510979#7 -11510979#8 -11511699 -11511714#0 -11511714#10 -11511714#11 -11511714#12 -11511714#13 -11511714#14 -11511714#17 -11511714#2 -11511714#4 -11511714#5 -11511714#6 -11511714#7 -11511714#9 -11511726#1 -11512065#0 -11512095 -11512221 -11512397 -11512421 -11512449#10 -11512449#11 -11512449#12 -11512449#13 -11512449#3 -11512449#4 -11512449#5 -11512449#6 -11512449#7 -11512449#8 -11512449#9 -11512714#0 -11512714#1 -11512744 -11512745#0 -11512745#1 -11512760#0 -11512760#1 -11512760#10 -11512760#11 -11512760#12 -11512760#13 -11512760#14 -11512760#15 -11512760#16 -11512760#17 -11512760#18 -11512760#19 -11512760#2 -11512760#20 -11512760#22 -11512760#23 -11512760#24 -11512760#25 -11512760#26 -11512760#27 -11512760#3 -11512760#4 -11512760#6 -11512760#7 -11512760#8 -11512760#9 -11512995#3 -11513021#0 -11513021#1 -11513022 -11513151 -11513165 -11513171 -11513233#0 -11513345 -11513361 -11513543 -11513769 -11513791#0 -11513791#1 -11513791#2 -11514187 -11514220#0 -11514220#1 -11514252#0 -11514252#2 -11514309 -11514316 -11514360 -11514476 -11514569 -11514578 -11514581 -11514641 -11514911#0 -11514911#1 -11514911#2 -11515127 -11515311 -11515413 -11515419 -11515632 -11515686#0 -11515686#1 -11515931#2 -11515953#0 -11515953#1 -11515953#2 -11516151#0 -11516151#1 -11516151#10 -11516151#11 -11516151#12 -11516151#14 -11516151#15 -11516151#16 -11516151#17 -11516151#18 -11516151#19 -11516151#2 -11516151#20 -11516151#3 -11516151#5 -11516151#6 -11516151#7 -11516173 -11516208#0 -11516208#1 -11516383#0 -11516383#1 -11516383#2 -11516383#3 -11516484 -11516537 -11516586 -11516750#0 -11516750#1 -11516927 -11516928 -11516934#3 -11516934#4 -11516934#5 -11516934#6 -11516992 -11516993 -11517031#0 -11517031#1 -11517033 -11517132 -11517332#0 -11517332#1 -11517332#2 -11517478 -11517517 -11517588 -11517741 -11517885#0 -11517887#0 -11517887#1 -11517889#0 -11517889#1 -11517889#2 -11517889#3 -11517890#0 -11517890#1 -11517890#2 -11517893 -11517961 -11518057#0 -11518057#6 -11518111 -11518126 -11518208 -11518258#0 -11518258#2 -11518275#2 -11518275#4 -11518390 -11518465 -11518496#1 -11518506#5 -11518574 -11518615 -11518623#0 -11518623#3 -11518623#4 -11518806#0 -11518806#1 -11518806#2 -11518806#3 -11518806#4 -11518806#5 -11518891#0 -11518891#1 -11518891#2 -11518990 -11519175#2 -11519300 -11519439#0 -11519439#1 -11519439#2 -11519439#3 -11519439#4 -11519439#5 -11519439#7 -11519439#8 -11519515 -11519522 -11519739 -11519938 -11519999#0 -11519999#1 -11519999#2 -11520149 -11520223 -11520369#0 -11520369#1 -132577602#1 -132577602#10 -132577602#11 -132577602#2 -132577602#3 -132577602#4 -132577602#6 -132577602#7 -132577602#8 -132577602#9 -132577680#0 -132577680#1 -132577680#2 -132577680#3 -132577680#4 -132577680#5 -132577680#6 -132577681#1 -191388998#0 -191388998#4 -191388998#5 -200685847#1 -200685847#2 -200685848 -200691672 -251432639#0 -251432639#1 -251432643#1 -304529448 -304529449 -304529456 -337848343 -337848602#0 -337848602#1 -337848606#0 -337848606#1 -337848612#0 -337848612#1 -353029912 -357850616#0 -357850616#1 -357850616#2 -358399780#0 -358399780#1 -358399780#2 -359421146 -359421149#0 -359421149#1 -359421150 -421177408#10 -422324989#11 -422324989#12 -422324989#13 -422324989#14 -422324989#2 -422324989#3 -422324989#4 -422324989#5 -422324989#6 -422324989#7 -422324989#9 -422324990#0 -422324990#1 -422324990#2 -436295362#0 -63911933#0 -63911933#1 -63911933#2 -63911933#3 -63911933#4 -63911933#5 -63918234 -63918300#0 -63918300#1 114751042#0 114751042#1 114751042#2 114751042#3 114751042#4 114751062#0 114751062#1 11502799 11502801 11503132#2 11503405 11504330 11504332 11504600#0 11504600#1 11504600#11 11504600#13 11504600#14 11504600#15 11504600#16 11504600#17 11504600#4 11504600#5 11504600#6 11504600#7 11504927 11505103 11505141 11505536#0 11505536#1 11505536#2 11505578 11505703 11505787 11505998#1 11506337 11506382#0 11506382#1 11506668#0 11506668#1 11506668#2 11506668#3 11506668#4 11507033 11507153#0 11507153#1 11507153#2 11507368#0 11507368#1 11507368#2 11507368#3 11507368#4 11507368#5 11507368#6 11507737 11507740#0 11507740#1 11508006 11508089#17 11508567#0 11508567#1 11508567#2 11508567#3 11508567#4 11508567#6 11509120 11509194#0 11509194#1 11509194#12 11509194#13 11509194#16 11509194#2 11509194#20 11509194#21 11509194#24 11509194#25 11509194#3 11509194#4 11509194#5 11509194#7 11509194#8 11509194#9 11509571#1 11509571#2 11509571#3 11509571#4 11509571#5 11509571#6 11509571#7 11509571#8 11509573#0 11509573#1 11509585#1 11509585#10 11509585#2 11509585#3 11509585#4 11509585#5 11509585#6 11509585#7 11509585#8 11509585#9 11509621#0 11509621#1 11509928#0 11509928#1 11509928#10 11509928#11 11509928#3 11509928#5 11509928#6 11509928#7 11509928#8 11509928#9 11510131#0 11510131#1 11510131#2 11510131#3 11510131#4 11510131#5 11510131#6 11510151 11510487 11510500#1 11510500#2 11510500#3 11510533 11510601 11510708#0 11510708#1 11510708#2 11510830#0 11510830#1 11510830#2 11510830#3 11510830#4 11510830#5 11510979#0 11510979#1 11510979#10 11510979#11 11510979#12 11510979#14 11510979#15 11510979#16 11510979#17 11510979#18 11510979#19 11510979#2 11510979#22 11510979#23 11510979#24 11510979#25 11510979#27 11510979#29 11510979#30 11510979#32 11510979#4 11510979#5 11510979#6 11510979#7 11510979#8 11511699 11511714#0 11511714#10 11511714#11 11511714#12 11511714#13 11511714#14 11511714#17 11511714#2 11511714#4 11511714#5 11511714#6 11511714#7 11511714#9 11511726#1 11511751 11512065#0 11512095 11512221 11512397 11512449#10 11512449#11 11512449#12 11512449#13 11512449#3 11512449#4 11512449#5 11512449#6 11512449#7 11512449#8 11512449#9 11512714#0 11512714#1 11512744 11512745#0 11512745#1 11512760#0 11512760#1 11512760#10 11512760#11 11512760#12 11512760#13 11512760#14 11512760#15 11512760#16 11512760#17 11512760#18 11512760#19 11512760#2 11512760#20 11512760#22 11512760#23 11512760#24 11512760#25 11512760#26 11512760#27 11512760#3 11512760#4 11512760#6 11512760#7 11512760#8 11512760#9 11513021#0 11513021#1 11513022 11513151 11513165 11513171 11513233#0 11513361 11513543 11513769 11513791#0 11513791#1 11513791#2 11514187 11514220#0 11514220#1 11514252#0 11514252#2 11514309 11514316 11514360 11514476 11514569 11514578 11514581 11514641 11514649 11514650 11514911#0 11514911#1 11514911#2 11515127 11515311 11515413 11515419 11515632 11515686#0 11515686#1 11515931#2 11515953#0 11515953#1 11515953#2 11516151#0 11516151#1 11516151#10 11516151#11 11516151#12 11516151#14 11516151#15 11516151#16 11516151#17 11516151#18 11516151#19 11516151#2 11516151#20 11516151#3 11516151#5 11516151#6 11516151#7 11516173 11516208#0 11516208#1 11516383#0 11516383#1 11516383#2 11516383#3 11516484 11516537 11516586 11516750#0 11516750#1 11516927 11516928 11516934#4 11516934#5 11516934#6 11516992 11516993 11517031#0 11517031#1 11517033 11517132 11517332#0 11517332#1 11517332#2 11517332#3 11517478 11517517 11517588 11517741 11517885#0 11517885#1 11517887#0 11517887#1 11517889#0 11517889#1 11517889#2 11517889#3 11517890#1 11517890#2 11517893 11517954 11517961 11518057#0 11518057#6 11518111 11518126 11518208 11518258#0 11518258#2 11518275#2 11518275#4 11518390 11518465 11518496#1 11518506#5 11518574 11518615 11518623#0 11518623#3 11518623#4 11518806#0 11518806#1 11518806#2 11518806#3 11518806#4 11518806#5 11518891#0 11518891#1 11518891#2 11518990 11519175#2 11519300 11519439#0 11519439#1 11519439#2 11519439#3 11519439#4 11519439#5 11519439#7 11519439#8 11519515 11519522 11519739 11519938 11519999#0 11519999#1 11519999#2 11520149 11520369#0 11520369#1 132577602#1 132577602#10 132577602#11 132577602#2 132577602#3 132577602#4 132577602#6 132577602#7 132577602#8 132577602#9 132577680#0 132577680#1 132577680#2 132577680#3 132577680#4 132577680#5 132577680#6 132577681#1 191388998#0 191388998#4 191388998#5 200685838#0 200685838#1 200685842 200685847#1 200685847#2 200685848 200685849 200685855#0 200685855#1 200685856#0 200685856#1 200685856#2 200685856#3 200685856#4 200691667 200691672 251432639#0 251432639#1 251433706 304529448 304529449 304529456 337848343 337848602#0 337848602#1 337848606#0 337848606#1 337848612#0 337848612#1 353029912 357850615 357850616#0 357850616#1 357850616#2 358399780#0 358399780#1 358399780#2 359421146 359421147 359421148 359421149#0 359421149#1 359421150 421177408#10 422324988#0 422324988#1 422324988#2 422324989#11 422324989#12 422324989#13 422324989#14 422324989#3 422324989#4 422324989#5 422324989#6 422324989#7 422324989#9 422324990#0 422324990#1 422324990#2 422324995#0 422324995#1 422324995#2 436295362#0 608099016 608099017 63911933#0 63911933#1 63911933#2 63911933#3 63911933#4 63911933#5 63911933#6 63918234 63918300#0 63918300#1"/>