<tazs>
    <taz id="0_0" shape="-1749.0,-1749.0 1749.0,-1749.0 1749.0,1749.0 -1749.0,1749.0 -1749.0,-1749.0" color="246,0,255" edges="413749473 5681925"/>
    <taz id="0_1" shape="-1749.0,1751.0 1749.0,1751.0 1749.0,5249.0 -1749.0,5249.0 -1749.0,1751.0" color="0,255,238" edges="-127690685 -157405685 -194923760 -194923778#0 -194923778#1 -194923798#1 -194923798#2 -195743138 -195743195#1 -195743195#3 -195743195#5 -195743197#0 -195743197#1 -195743197#2 -195743199#0 -195743199#2 -195743267#0 -195743267#1 -195743267#2 -195743271#0 -195743271#1 -196117059#1 -226040985#0 -226040985#1 -226040986#0 -226193904#0 -226193904#1 -226193905#1 -226193905#2 -226193928#1 -226193928#2 -226193928#3 -226193929#0 -226193929#1 -226193929#2 -226193929#3 -226193929#4 -226193930#0 -226193930#1 -226193930#2 -226193930#3 -226193930#4 -22928102#1 -22928102#2 -250049337 -275016228#1 -275016228#2 -275016228#3 -275016228#4 -277201109 -351638330#0 -351638330#1 -351638330#2 -374421069#0 -374421069#1 -374421069#2 -374421069#3 -384178817#0 -38605246 -38605247 -388316170 -410302891#0 -413045905 -413201428 -413212450#0 -413212450#1 -413212450#2 -414743582#0 -414743582#1 -414751576#5 -414751576#6 -414751576#7 -420890074#0 -420890077#0 -421831216#0 -421831216#1 -438363728 -438366913#0 -438366913#1 -438366913#2 -438366913#3 -438901427#1 -438901427#2 -438901427#3 -460624363 -46116314#1 -46116314#2 -46154330#1 -46154330#2 -46154330#3 -46154330#4 -46154330#5 -46154337#0 -46154337#1 -46154337#2 -46154337#3 -46154337#4 -46160106#1 -46160106#2 -46160244#1 -46160403 -46160404#12 -46160404#13 -46160404#3 -46160404#4 -46160404#5 -46160404#6 -46160404#9 -46165807#0 -46165807#1 -46165812#0 -46165812#1 -46165815#0 -46165815#1 -46165815#2 -46165815#3 -46165816 -46165819#1 -46165821#1 -46166212#1 -46332295#0 -46332295#1 -46332295#2 -46332295#3 -466956273#1 -467222856#0 -467222856#1 -467222856#2 -467222856#3 -467222856#5 -467222856#8 -480682391#0 -480682391#1 -480682392#0 -480682392#1 -480682392#2 -480972178 -485056263#0 -485056263#1 -495946403#0 -495946403#1 -495946403#2 -495946403#3 -495946403#4 -495946403#5 -496978218 -496978219 -496989959 -505598707#0 -524361790 -524610937#0 -524816751 -525038147#1 -525656841 -525656842 -525656847 -525656852 -525658419 -536917120 -5669013#0 -5669013#1 -5669933#1 -5670205 -5671028#0 -5671028#1 -5671084#0 -5671296#0 -5671296#1 -5671307#0 -5671307#1 -5671307#2 -5671307#3 -5671307#4 -5671713#1 -5671713#2 -5671713#3 -5672148#1 -5672148#2 -5672148#3 -5672550#0 -5672550#1 -5673078 -5673532#0 -5673532#1 -584971510#1 -584971513 -584971522 -587038050#0 -587038050#1 -591772210#2 -591772210#3 -600222727#0 -600222727#1 -614572151#0 -614572151#1 -614572151#2 -614572151#3 -630828598 -630828599 -653406301#0 -653406301#1 -655260632 -656827422#2 -658097764 -75311776#0 -75311776#1 122660454 122660458 122660459 122660460#1 122660461 124814435#0 124814435#1 124814435#2 124814435#3 124814435#4 125436141#0 125436141#1 125436141#2 125436141#3 127690685 129834314#0 129834314#1 129834314#2 129834314#3 129834316#0 129834316#1 129834316#2 129834316#3 129834316#4 129834316#5 140391522#2 140391522#3 140391522#4 157012386#3 157405685 165672323#1 165672323#4 165733924 181546837#0 181546837#12 181546837#2 181546837#5 181546837#6 181546837#9 194923759#0 194923760 194923776#1 194923776#2 194923776#3 194923778#0 194923778#1 194923789#0 194923790 194923796 194923798#1 194923798#2 194923810#1 194923810#2 194923810#3 195743137#1 195743138 195743179#0 195743179#1 195743179#2 195743179#3 195743195#1 195743195#3 195743195#5 195743196#0 195743196#1 195743197#0 195743197#1 195743197#2 195743199#0 195743199#2 195743225#0 195743225#1 195743226#1 195743227#1 195743227#2 195743227#3 195743228#0 195743228#1 195743229#0 195743264#1 195743264#2 195743264#3 195743267#0 195743267#1 195743267#2 195743271#0 195743271#1 196116978#0 196116978#1 196116978#2 196116979 196117045#1 196117059#1 222299238#0 222299238#1 222299238#2 222299238#3 222299238#4 222299240#0 222299240#1 222299254 222299272 222299273#0 222299273#1 222299273#2 222299273#3 222299274#0 222299274#1 222299274#2 222299275#1 222299275#10 222299275#11 222299275#12 222299275#14 222299275#15 222299275#2 222299275#4 222299275#5 222299275#6 222299275#7 222299275#8 222299275#9 222299277 226040985#0 226040985#1 226041017#0 226193904#0 226193904#1 226193905#1 226193905#2 226193928#1 226193928#2 226193928#3 226193929#0 226193929#1 226193929#2 226193929#3 226193929#4 226193930#0 226193930#1 226193930#2 226193930#3 226193930#4 22898087#1 22898087#2 22898269#0 22898269#1 22898269#2 22898269#3 22898269#4 22927287#0 22927287#1 22927399#1 22927411#2 22927411#3 22927411#4 22927411#5 22927411#6 22927462#0 22927462#1 22927462#2 22927462#3 22927462#4 22927463#0 22927463#3 22927484#0 22927486#1 22927486#2 22927486#3 22927765#0 22927765#1 22927850 22927873#0 22927873#1 22927903 22927941#0 22927946#1 22927946#2 22928102#1 22928102#2 22946628 24263967#2 24263967#3 25026344 25199870#2 25199870#3 25199870#4 25199870#5 25199870#6 25561915 25562074#1 25562077 25562079#1 25562090#0 25562090#1 25564255 25564540 256902825#0 256902825#1 256902825#2 256902826#1 256902826#3 256902826#4 256902826#5 256902827#1 256902828 256902829 256902830#0 256902830#1 256902830#2 256902831 263563003 275016228#1 275016228#2 275016228#3 275016228#4 277201109 277201110 321993366#0 321993367#0 321993367#1 321993367#2 32922456#1 32922464 32934351#1 32934353 32934355 32934358 32934362#0 32934362#1 32934362#2 32934364 32935106 32935107 342785522 348488662#0 348488662#1 348488665#5 351540625#0 351540625#1 351540632#2 351638330#1 351638330#2 351638330#3 351652731 356140737#1 356140743#0 370169932#0 370169932#2 374421069#0 374421069#1 374421069#2 374421069#3 374423161#0 374423161#1 374423161#2 374423161#3 37890350#0 37890350#1 37890350#2 384178817#0 38605246 38605247 38605248 388167518 388167519 388281629 388281630#0 388281630#1 388281631#0 388281631#1 388281631#2 388281632 388281633#0 388281633#1 388284037#0 388284037#1 388316170 388318981#1 39956205#0 39956205#1 403405990 40879221 40879223 40956098#1 40956098#2 410302891#0 410302891#1 412115641#0 412115641#1 412115641#2 412115641#3 412174929#2 412174929#3 412174929#4 412180553#0 412180553#1 412180553#2 412180553#3 412180553#4 412180553#5 412180553#6 412180553#7 412180553#8 412180553#9 412875705#1 412876925 413045201#0 413045201#1 413045202 413045905 413050334#1 413050334#3 413050334#4 413050334#7 413050335#0 413050335#1 413050335#2 413051876#0 413051876#1 413051876#2 413052676#0 413052676#1 413052676#2 413054286#0 413054286#1 413054286#2 413054286#3 413054850#1 413054850#2 413054857#0 413054857#1 413054857#2 413054857#3 413054857#4 413054857#5 413054857#6 413054857#7 413056164 413201428 413203693#2 413212450#1 413212450#2 413217631 413217632#0 413217632#1 413704239#1 413704325#1 413727897#1 413732107 414743429#0 414743582#0 414743582#1 414744944 414747621 414749641#0 414751576#6 414751576#7 415882710 420772654#0 420772654#1 420772654#2 420809408#0 420809408#1 420809409#0 420809411#1 420809412 420809413#1 420809414#3 420809415#1 420809415#2 420809417#1 420809417#2 420809419#0 420809419#1 420809419#2 420809419#3 420809419#4 420809421 420809425#0 420809425#1 420809439 420809440#0 420809440#1 420809441 420809442 420809443 420809446#1 420809446#2 420809446#3 420809448 420810619 420810620#1 420810621 420810622#0 420810622#1 420888140#0 420888141 420888145 420888146#1 420888147 420888152 420888153#1 420888154 420890074#0 420890074#1 421825694#0 421831216#0 421831216#1 421831216#2 421832640 421832641#1 421832641#2 421832642 421832643#1 421832644#0 421832644#1 421832644#2 421832644#5 421832645#0 421832645#1 421832647 421832648 432550259#1 433394647#0 433398367#1 438362422 438362423#0 438362423#1 438363728 438363729#0 438363729#1 438363729#2 438363729#3 438366913#0 438366913#1 438366913#2 438366913#3 438367286#1 438367286#2 438367286#3 438370108 438900013#1 438900013#2 438901427#1 438901427#2 438901427#3 439842836#0 439842837#0 439842837#1 439842837#2 439842837#3 439842837#4 439933931#1 439933945#0 439933948#0 439933948#4 439933948#5 439933949#0 439933949#1 439933951 447018423#0 447018423#1 447018423#2 452339699#1 455501322 455501328#1 460624363 460624365 46116170 46116177#0 46116177#1 46116180#0 46116180#1 46116181#0 46116181#1 46116183#0 46116314#1 46116314#2 46116316 46116326#3 46116329#1 46116329#2 46116390#0 46116390#1 46116390#2 46116390#3 46116390#4 46116435#0 46116435#1 46116441 46116442 46139033#0 46139033#1 46139033#2 46139034#0 46139034#1 46139034#10 46139034#2 46139034#4 46139034#6 46139034#7 46139036#1 46139036#4 46139039#0 46139039#1 46139039#2 46139039#4 46139039#5 46139039#6 46139040#0 46139040#1 46139040#2 46139040#3 46139041#2 46139042 46139046#0 46139046#1 46154297#1 46154300#0 46154300#2 46154327#0 46154327#1 46154327#2 46154327#3 46154330#1 46154330#2 46154330#3 46154330#4 46154330#5 46154332#0 46154332#1 46154332#2 46154337#0 46154337#1 46154337#2 46154337#3 46154337#4 46154338#0 46154338#1 46154338#2 46154338#3 46154338#4 46154338#5 46156708#0 46160083 46160106#1 46160106#2 46160153#0 46160153#1 46160225#0 46160225#1 46160225#2 46160244#1 46160330#0 46160330#1 46160330#2 46160330#3 46160365#0 46160365#1 46160365#2 46160365#3 46160365#4 46160365#5 46160365#6 46160365#7 46160365#8 46160365#9 46160386 46160403 46160404#12 46160404#13 46160404#3 46160404#4 46160404#5 46160404#6 46160404#9 46160406#0 46160406#1 46165807#0 46165807#1 46165810#0 46165810#1 46165812#0 46165812#1 46165815#0 46165815#1 46165815#2 46165815#3 46165816 46165818 46165819#1 46165821#1 46166212#1 46166213 46171876#1 46171876#2 46171876#3 46171876#4 46171876#5 46171878#0 46171878#2 46171878#3 46171878#4 46171878#5 46171879#0 46171879#1 46171880 46171883#0 46171883#1 46171884#0 46171884#1 46171887 46171888 46171889#0 46171889#2 46171889#3 46171907 463035747 46332295#0 46332295#1 46332295#2 46332295#3 46332299#0 46332299#1 46332300#0 46332300#1 46332301#0 46332301#1 46332301#2 46332301#3 46332301#4 46332301#5 46348767#3 46348767#4 46348767#5 46350693#0 46350693#2 46350694#0 46350694#1 46350694#2 46350694#3 46350707#0 46350707#1 46350707#2 46350707#3 46350707#4 46350707#5 46350710#1 46350710#2 46422586#0 46422586#1 465255350 46629378 466956271 466956272#1 466956272#2 466956273#1 466956274#1 466956276#0 466956276#1 466956276#4 466956278#0 466956278#1 466956278#2 466956278#4 466956278#5 467222856#0 467222856#1 467222856#2 467222856#3 467222856#4 467222856#8 468414627#0 468414627#1 468414628#0 475867321#0 475867321#1 47796374#0 47796374#2 47796374#3 47796374#4 47796374#5 480682390 480682391#0 480682391#1 480682392#0 480682392#1 480682392#2 480682393#0 480682393#1 480682393#2 480682393#3 480682393#4 480682393#5 480682394#0 480682394#1 480682395 480682397 480972178 483707770 485056260#0 485056260#1 485056260#2 485056262#1 485056263#0 485056263#1 494221658#1 495946403#1 495946403#2 495946403#3 495946403#4 495946403#5 495946403#6 496978218 496978219 496982371 496982627#0 496982627#1 496989957 496989959 496990369#1 497191099 500701825 505598707#0 507432922 515879032#0 515879032#1 515879035#0 515879035#1 515879040#0 515879040#1 516664206#0 516664207#1 516664210#1 520532096#0 520532096#1 524361790 524363437#2 524610938#1 524610938#2 524816751 524817693#0 524817693#1 524817694#0 524817694#1 524817694#2 524817694#3 525038147#1 525656841 525656842 525656847 525656852 525658419 525760563#1 526503345#0 526503346 526839039#0 526839039#1 526839039#2 526839040#0 526839040#1 526839040#2 526839040#3 533472709 533472710 536917118#0 536917118#1 536917118#2 536917118#3 536917118#4 536917118#5 536917118#6 536917118#7 536917118#8 536917118#9 536917119 536917120 539024459#0 539024459#1 539024459#4 539024459#5 539024459#6 539024460#0 539024460#2 539024460#3 539024460#5 541059722 541336911#0 541345307#0 541345307#1 541345307#2 541345307#3 541345307#4 541346245 541346246#0 541346246#1 541346246#2 541346246#3 54689817#0 54689817#1 54689817#2 54689817#3 54689817#4 54689817#5 54689818 556311124#1 556311124#2 556311124#3 556311124#4 556311124#5 556311124#6 556311124#7 556311124#8 5668999#0 5668999#1 5668999#2 5669013#0 5669013#1 5669205#0 5669205#1 5669206 5669279#0 5669279#1 5669322#1 5669322#2 5669348#1 5669420#0 5669420#1 5669486#2 5669486#3 5669631 5669633#0 5669633#1 5669636 5669742#0 5669742#1 5669742#2 5669742#3 5669742#4 5669742#5 5669742#6 5669742#7 5669742#8 5669745#1 5669745#2 5669745#3 5669745#4 5669804 5669815#0 5669815#1 5669829#1 5669829#2 5669866#0 5669866#1 5669866#2 5669866#3 5669866#4 5669866#5 5669866#6 5669882#0 5669882#1 5669899#1 5669922#0 5669922#1 5669922#2 5669925#0 5669933#1 5669935#0 5669935#1 5669935#2 5669938#0 5669938#1 5669938#2 5669938#3 5669938#4 5670167#0 5670167#1 5670168#0 5670168#1 5670174#0 5670174#1 5670174#2 5670193#3 5670193#4 5670193#5 5670193#6 5670205 5670238#1 5670267#0 5670267#1 5670267#2 5670268 5670418#0 5670418#1 5670418#2 5670440#1 5670440#2 5670462#1 5670490#0 5670490#1 5670584#0 5670584#1 5670584#2 5670584#3 5670618#0 5670657 5670668 5670703#0 5670703#1 5670728#0 5670728#1 5670728#2 5670728#3 5670792#0 5670792#1 5670792#2 5670792#3 5670814#1 5670814#10 5670814#4 5670814#5 5670814#6 5670820#2 5670820#3 5670877#0 5670877#1 5670877#2 5670877#3 5670877#4 5670877#5 5670920 5670932#1 5670932#2 5671008 5671028#0 5671028#1 5671084#0 5671121#0 5671121#1 5671121#2 5671140#0 5671140#1 5671140#2 5671140#3 5671140#5 5671172#0 5671172#1 5671172#2 5671202#0 5671202#1 5671202#2 5671202#3 5671291#0 5671291#1 5671291#2 5671296#0 5671296#1 5671307#1 5671307#2 5671307#3 5671307#4 5671314#1 5671314#2 5671314#3 5671327 5671354#0 5671354#1 5671354#2 5671354#3 5671354#4 5671436#2 5671436#3 5671436#6 5671436#9 5671457#1 5671457#4 5671457#5 5671458#0 5671458#1 5671587#1 5671593 5671603#1 5671603#2 5671608#4 5671608#7 5671615#0 5671615#1 5671713#1 5671713#2 5671713#3 5672006 5672027#0 5672027#1 5672027#2 5672110 5672146#1 5672146#2 5672148#1 5672148#2 5672148#3 5672168#0 5672168#1 5672168#2 5672244#0 5672244#1 5672337#1 5672337#2 5672377#0 5672377#1 5672377#2 5672377#3 5672377#4 5672550#0 5672550#1 5672578#0 5672654#0 5672654#1 5672803#0 5672803#1 5672871#0 5672871#1 5672871#2 5672893#1 5672925#1 5672973#0 5672973#13 5672973#14 5673035 5673038#0 5673038#1 5673075 5673078 5673211 5673316#14 5673342#1 5673441#0 5673441#1 5673530#0 5673532#0 5673532#1 5673532#2 5673581#0 5673581#1 5673591#0 5673594#0 5673594#1 5673628 573333859#0 584971510#1 584971513 584971522 586350564#1 587038049#0 587038049#1 587038050#0 587038050#1 587038051 588157329#1 588157329#6 588157329#7 588157330 588168462 591772210#2 591772210#3 600222727#1 607091411#0 607091411#1 607091411#2 607091411#3 607091411#4 607091411#5 614572151#0 614572151#1 614572151#2 614572151#3 614853315 630828596 643000849#0 643000849#1 652875877#1 653406301#0 653406301#1 655260632 656827422#2 658097764 669685948 68325062 68668546#0 68668546#1 68668546#2 68668546#3 68668553#0 68668553#1 68668562#0 68668562#1 68668562#2 68668562#3 75311776#0 75311776#1 75359816#1 95181773#1"/>
    <taz id="0_2" shape="-1749.0,5251.0 1749.0,5251.0 1749.0,8749.0 -1749.0,8749.0 -1749.0,5251.0" color="0,255,181" edges="-116672333#1 -116672333#2 -116672333#3 -194923791 -195743555#0 -195743555#1 -196117074 -196117075#0 -196117075#1 -196117075#2 -22909247 -273019810#0 -273019810#1 -36801165#1 -36801165#3 -384178812#0 -384178812#1 -420522443#1 -420908136#0 -439842799 -458106348#1 -460589632 -46431825#0 -46431825#1 -46481744#0 -46481744#1 -46481744#2 -46481754#0 -46481754#1 -46481754#2 -46481754#3 -46481755#0 -46481755#1 -525033953 -5669809 -5672922#0 -5672922#1 -5673605#0 -5673605#1 -584971499 -611258687#0 -611258687#1 -663630710#1 116672333#1 116672333#2 116672333#3 116672642#0 116672642#1 118714476#0 118714476#2 118714476#3 118714476#4 118714476#7 118714476#9 125479715#0 125479715#1 127693199#0 127693199#1 127693199#2 127693199#3 127693199#5 127693200#0 127693200#1 127693200#2 127693384#0 127693384#1 127693388#0 127693388#1 156994955 156994977#0 156994977#1 156994977#2 157012386#1 157012386#2 157012387#3 159657620#1 164420607#0 164420607#1 164420607#2 194923791 194923792#0 194923792#1 194923794#1 194923794#2 194923795#0 194923795#1 194923799#1 194923800#1 194923800#2 194923801#0 194923801#1 194923801#3 194923801#4 194923802#0 194923802#1 194923802#3 194923802#4 194923802#5 194923803 194923804#0 194923804#1 194923805#0 194923805#1 194923806#0 194923806#2 194923811 194923812#0 194923812#1 194923812#2 194923812#3 194926843 194926849#0 194926849#1 194926850#0 195743555#0 195743555#1 195743557#0 195743557#1 195743558#0 195743558#3 195743558#4 195743558#5 195834894#1 196116974#0 196117028#0 196117028#1 196117028#2 196117028#3 196117074 196117075#0 196117075#1 196117075#2 196117091#1 196117091#2 216959248 216959250#0 216959250#1 226041041 226041042 226193933#0 226193933#1 226193933#10 226193933#11 226193933#12 226193933#13 226193933#14 226193933#2 226193933#3 226193933#4 226193933#5 226193933#6 226193933#7 226193933#8 226193933#9 22897720#1 22903913#1 22903923#1 22904053#0 22904053#1 22904062#2 22904149#1 22909136 22909152#0 22909247 22909249 22914179#0 22914179#1 22914179#2 22914180#1 22914181#0 22914181#1 22914181#2 22914182#0 22914182#1 22916319#1 22916321#0 22916321#1 22916379#0 22916379#1 22927373#1 22927373#2 22927373#3 239988110#0 239988110#1 239988110#2 239988110#3 239988110#4 25199402#0 25199402#1 25199402#2 25199402#3 25199402#4 25199402#6 25199402#7 273019810#0 273019810#1 273019814#2 273019814#3 273019814#4 273019814#5 308322431#1 308322431#2 308322431#3 31984130 320480539 336872313#1 336872313#2 34625442#0 34625443#0 34625443#1 34625463#0 34625463#1 34625464#0 34625464#1 348477347#1 348477348#0 348477348#1 348477348#2 348477348#3 348477348#4 350726028#10 350726028#8 350726028#9 350726031 36801165#1 36801165#3 384178812#0 384178812#1 384178813#0 384178813#1 396444293#0 396444293#1 396444293#2 396444294#0 396444294#1 396444294#2 396444294#4 396444295#0 396444295#1 396444295#2 396444295#3 396444295#4 420522049#1 420522049#2 420522049#3 420522049#6 420522049#7 420522050 420522443#1 420530113#0 420530113#1 420530114#1 420530114#2 420530114#3 420598323#0 420598323#1 420598323#2 420598323#3 420598323#4 420598323#5 420598335 420598337 420598345 420598356 420809420#1 420809420#3 420809420#4 420809420#7 420809420#8 420809420#9 420809434 420809438#0 420809445#1 420895276 420895277#0 420895277#1 420895277#2 420895277#3 420895278 420895279 420895280 420895282#0 420895282#1 420895283#0 420895283#1 420895285#0 420895285#1 420908128#1 420908129 420908130 420908131 420908132#1 420908133#2 420908134 421853647 421853648#2 421853648#4 421853809 421853810#1 421853810#2 433124968#0 433124968#10 433124968#11 433124968#3 433124968#6 433124968#9 433124996#1 439842799 439933934#0 439933934#1 439933935#0 439933935#1 439933935#2 439933945#1 452339699#2 452492203#0 452492203#1 458106344#1 458106344#2 458106345#1 458106345#2 458106345#3 458106345#4 458106345#5 458106345#6 458106345#8 458106346#1 458106346#2 458106346#3 458106346#4 458106346#5 458106346#6 458106346#7 458106346#8 458106347#0 458106347#1 458106348#1 460585329#1 460589632 46171876#10 46171876#11 46171876#12 46171876#13 46171876#14 46171876#15 46171876#16 46171876#17 46171876#6 46171876#7 46171876#8 46171876#9 46226332#0 46226332#1 46334602#0 46334602#1 46334603#0 463532615 46431821 46431822#0 46431822#1 46431822#2 46431822#3 46431823#1 46431823#2 46431823#3 46431825#0 46431825#1 46431829#0 46431829#1 46431829#2 46431829#3 46432187#1 46432187#2 46481095#1 46481095#2 46481095#3 46481095#4 46481095#6 46481095#9 46481744#0 46481744#1 46481744#2 46481754#0 46481754#1 46481754#2 46481754#3 46481754#4 46481755#0 46481755#1 46490540#0 46490540#1 465098271 465098276 465098295 46608946#0 46608946#1 46608946#2 46608946#3 46608946#4 46608946#5 46608946#6 46608946#7 46608946#8 46609036#0 46609036#1 46610717#0 46610717#1 46610719#0 46610719#1 46610719#2 46610721#0 46610721#1 46610722 46610724#0 46610724#1 46610725#0 46610725#1 46610725#2 46610725#3 46610726#1 46610726#2 46610726#3 46610727#1 46610727#2 46610727#3 46610728 46610734#0 46610734#1 467222812#0 467222812#1 467222812#2 467222812#3 467222812#4 467222812#5 467222828#0 467222828#1 468414632#0 468414632#1 468414633 468414634#0 468414634#1 473884145 474635896 474635898 474635899#0 474635899#1 474635900 474635901 474635902 474635904 474635905 480112475#1 480112476#0 480112476#1 480112477#0 480112477#1 480112477#2 480112478#0 480112478#1 480112478#2 480112478#3 480112479 480112480#0 480112480#1 480112481#0 480112481#1 480112482#0 480112482#1 480112483 480112484#0 483704512#10 483704512#11 483704512#8 483704512#9 485556247#0 485556247#1 489375009#0 489375009#1 489375010#0 489375010#1 492148702 492148703#0 492148703#1 492148704#1 492148704#2 492148706#4 492148706#6 496985713 496985714#1 496986855 496989301 496989302 496993920 498635438#1 505766273 505776502 506680905 506680906#1 525033953 541329572#0 543908289 5669643#0 5669643#1 5669806#2 5669809 5669842#0 5669945#0 5669953#0 5669953#2 5669953#3 5669953#4 5669953#5 5669953#6 5669953#7 5669976#1 5669976#2 5669993#0 5669993#1 5670012#0 5670012#1 5670170#0 5670171#2 5670171#3 5670171#4 5670204#0 5670204#1 5670247#0 5670297#0 5670297#1 5670297#2 5670451#0 5670451#1 5670451#2 5670451#3 5670454#1 5670498#1 5670514#1 5670514#2 5670719#1 5670719#2 5670719#3 5670719#4 5670897#8 5670941#0 5670941#1 5670941#2 5670942#1 5670942#2 5670942#3 5671203 5671261#0 5671261#1 5671261#3 5671460 5671654#1 5671668#0 5671668#1 5671668#2 5671668#3 5671754#1 5671973#1 5672001#1 5672073#0 5672073#1 5672073#2 5672142 5672159#0 5672159#1 5672159#2 5672159#3 5672159#4 5672159#5 5672510#0 5672510#1 5672535#0 5672535#1 5672535#2 5672681#0 5672681#2 5672681#3 5672681#4 5672681#5 5672681#6 5672800 5672912#1 5672922#0 5672922#1 5672987#0 5672987#1 5672987#2 5672987#3 5672988 5673052#0 5673052#1 5673052#2 5673102#1 5673102#2 5673102#3 5673102#4 5673102#5 5673309#0 5673309#1 5673342#0 5673452 5673605#0 5673605#1 5673619#1 5673622 589494594 591756888 597821266#1 597821266#3 597821266#5 597821266#6 597821266#7 611258687#0 611258687#1 611258688#1 643444515#0 643444515#1 646635888 663509701 663509704 663509710 663509716 663509719 663509723 663509727 663509729#0 663509729#1 663509731 663509733 663509737 663509738 663509739 663630710#1 663634122#1 663634122#2 663634122#3 663634122#4 663634122#5 663634122#6 663797737 663797739 663799681#1 674686230 677067769#0 677067769#4 682278650#0 68325061#0 68325061#1 68325104#1 68325104#4 68668540#0 68668540#1 95181768#0 95181768#1 95181768#10 95181768#11 95181768#13 95181768#14 95181768#16 95181768#2 95181768#4 95181768#5 95181768#7 95181768#8 95181774#1 95181774#2"/>
    <taz id="0_3" shape="-1749.0,8751.0 1749.0,8751.0 1749.0,12249.0 -1749.0,12249.0 -1749.0,8751.0" color="187,255,0" edges="-420904621#0 118714453#1 118714453#3 169267538#1 169383514#0 320888292 420904838 421853646 421853648#0 46482539#3 495253326#2 495253326#4 505777313#1 505777317#1 5669566 5673276#1 8028096"/>