<tazs>
    <taz id="0_0" shape="-3499.0,-3499.0 3499.0,-3499.0 3499.0,3499.0 -3499.0,3499.0 -3499.0,-3499.0" color="255,244,0" edges="-121826325 -643224201#1 131483969 643224201#1"/>
    <taz id="0_1" shape="-3499.0,3501.0 3499.0,3501.0 3499.0,10499.0 -3499.0,10499.0 -3499.0,3501.0" color="0,255,83" edges="-18243195#0 -18246614 -18248100#0 -18252643 173194846 173194846-AddedOffRampEdge 18243195#0 18246614 18248100#0 18252643 56437425#1 56437425#1-AddedOnRampEdge"/>
    <taz id="1_0" shape="3501.0,-3499.0 10499.0,-3499.0 10499.0,3499.0 3501.0,3499.0 3501.0,-3499.0" color="15,0,255" edges="-131465760#0 -131465760#1 -131465760#2 -131465760#3 -131465760#4 -131483664 -131483966 -145168349#0 -175836820 -18234952 -18239849 -18241126#0 -18241126#1 -18241127#2 -18241169 -18241322#0 -18241322#1 -18241323#0 -18241323#1 -18241359#6 -18241463#0 -18241463#1 -18241463#2 -18241463#3 -18241463#4 -18241463#5 -18241464#0 -18241464#1 -18241464#2 -18241535#0 -18241535#1 -18241761#0 -18241761#1 -18241761#2 -18241761#3 -18241761#4 -18241761#5 -18241761#6 -18241761#7 -18241762#0 -18241762#1 -18241831 -18241832#0 -18241876#0 -18241876#1 -18241890 -18241936#0 -18241936#1 -18241936#2 -18241946 -18242132#0 -18242132#1 -18242169 -18242203 -18242258#2 -18242258#3 -18242258#4 -18242274#0 -18242274#1 -18242274#10 -18242274#11 -18242274#2 -18242274#3 -18242274#4 -18242274#5 -18242274#6 -18242274#7 -18242274#8 -18242274#9 -18242277#0 -18242277#1 -18242289#0 -18242289#1 -18242289#2 -18242289#3 -18242289#4 -18242289#5 -18242385 -18242466 -18242521 -18242625#0 -18242625#1 -18242625#2 -18242781#0 -18242781#1 -18242781#10 -18242781#2 -18242781#3 -18242781#4 -18242781#5 -18242781#6 -18242781#7 -18242781#8 -18242781#9 -18242841#0 -18242841#1 -18242841#2 -18242841#3 -18242841#4 -18242886#0 -18242895#0 -18242895#1 -18243173#0 -18243173#1 -18243173#2 -18243173#3 -18243173#4 -18243173#5 -18243173#6 -18243201#6 -18243274 -18243810 -18243837#0 -18243837#1 -18243837#2 -18243837#3 -18243837#4 -18243838 -18244005#0 -18244005#1 -18244005#2 -18244005#3 -18244005#4 -18244005#5 -18244045#0 -18244045#1 -18244045#2 -18244045#3 -18244045#4 -18244045#5 -18244045#6 -18244397#0 -18244397#1 -18244397#2 -18244397#3 -18244397#4 -18244397#5 -18244397#6 -18244397#7 -18244503#0 -18244503#1 -18244503#2 -18244503#3 -18244503#4 -18244503#5 -18244503#6 -18244503#7 -18244505 -18244524#0 -18244525#0 -18244525#1 -18244604 -18244605 -18244679#0 -18244679#1 -18244679#2 -18244679#3 -18244708#0 -18244985#0 -18244985#1 -18244985#2 -18244985#3 -18244985#4 -18245132#0 -18245132#1 -18245132#2 -18245132#3 -18245132#4 -18245132#5 -18245132#6 -18245132#7 -18245330 -18245458#2 -18245458#3 -18245458#4 -18245649#0 -18245649#1 -18245649#2 -18245650#0 -18245650#1 -18245650#2 -18245650#3 -18245650#4 -18245650#5 -18245798#0 -18245798#1 -18245820#1 -18245820#2 -18245931 -18246168#0 -18246168#1 -18246168#2 -18246168#3 -18246168#4 -18246174#1 -18246177#0 -18246177#1 -18246177#2 -18246177#3 -18246177#4 -18246177#5 -18246179 -18246372#3 -18246372#4 -18246440#0 -18246440#1 -18246440#2 -18246440#3 -18246440#4 -18246458#0 -18246458#1 -18246458#2 -18246458#3 -18246458#4 -18246618#0 -18246618#1 -18246618#10 -18246618#11 -18246618#12 -18246618#2 -18246618#3 -18246618#4 -18246618#5 -18246618#6 -18246618#7 -18246618#8 -18246618#9 -18246862 -18247110#0 -18247164 -18247193#0 -18247193#1 -18247193#2 -18247214 -18247475 -18248160 -18249101#0 -18249101#2 -18249101#3 -18249101#4 -18249101#5 -18249101#6 -18249101#7 -18249101#8 -18249632 -18249965#0 -18249965#1 -18249965#2 -18249965#3 -18249965#4 -18249965#5 -18249965#6 -18249965#7 -18249965#8 -18250136#0 -18250136#1 -18250136#2 -18250136#3 -18250524#0 -18250524#1 -18250524#2 -18250524#3 -18250524#4 -18250524#5 -18250524#6 -18251175#0 -18251175#1 -18251175#2 -18251175#3 -18251175#4 -18251614 -18251827#0 -18251827#1 -18251827#2 -18251827#3 -18251827#4 -18251827#5 -18251827#6 -18252268#0 -18252268#1 -18252268#2 -18252268#3 -18252268#4 -18252270#0 -18252270#1 -18252270#2 -18252270#3 -18252270#4 -18252270#5 -18252270#6 -18252272 -18252504#0 -18252504#1 -18252615#10 -18252615#11 -18252902#0 -18252902#1 -18252902#2 -18252902#3 -18252902#4 -18253259#0 -18253259#1 -18253259#2 -18253701#0 -18253701#1 -18253701#2 -18253701#3 -18253701#4 -18253701#5 -18253713#0 -18253713#1 -18253713#2 -18253713#3 -18253713#4 -18253713#5 -18253713#6 -18253715#0 -18253715#1 -58980482#0 -58980482#1 -58980482#10 -58980482#11 -58980482#12 -58980482#13 -58980482#15 -58980482#16 -58980482#17 -58980482#2 -58980482#3 -58980482#4 -58980482#5 -58980482#6 -58980482#7 -58980482#8 -58980482#9 -643224201#0 -668771699 -668771700#0 -668771700#1 -668771700#2 -668781266 -668783355 131465759#0 131465759#1 131465760#0 131465760#1 131465760#2 131465760#3 131465760#4 131465760#5 131483664 131483966 131483967#0 131483967#1 131483967#2 131483967#3 131483967#4 131483968#0 131483968#1 141728167#0 141728167#1 141728167#2 141728167#3 141728168#0 141728168#1 175836820 18230480#1 18230480#2 18230494 18239849 18241126#0 18241126#1 18241127#2 18241169 18241322#1 18241323#0 18241323#1 18241359#6 18241463#0 18241463#1 18241463#2 18241463#3 18241463#4 18241463#5 18241464#0 18241464#1 18241464#2 18241464#3 18241535#0 18241535#1 18241761#1 18241761#2 18241761#3 18241761#4 18241761#5 18241761#6 18241761#7 18241762#0 18241762#1 18241832#0 18241876#0 18241876#1 18241890 18241936#0 18241936#1 18241936#2 18241946 18242132#1 18242169 18242258#2 18242258#3 18242258#4 18242274#0 18242274#1 18242274#10 18242274#11 18242274#2 18242274#3 18242274#4 18242274#5 18242274#6 18242274#7 18242274#8 18242274#9 18242277#1 18242280 18242289#0 18242289#1 18242289#2 18242289#3 18242289#4 18242289#5 18242385 18242466 18242625#0 18242625#1 18242625#2 18242781#0 18242781#1 18242781#10 18242781#2 18242781#3 18242781#4 18242781#5 18242781#6 18242781#7 18242781#8 18242781#9 18242841#1 18242841#2 18242841#3 18242841#4 18242886#0 18242886#1 18242895#0 18242895#1 18243173#0 18243173#1 18243173#2 18243173#3 18243173#4 18243173#5 18243173#6 18243201#6 18243274 18243810 18243837#0 18243837#1 18243837#2 18243837#3 18243837#4 18243838 18244005#0 18244005#1 18244005#2 18244005#3 18244005#4 18244005#5 18244005#6 18244045#0 18244045#1 18244045#2 18244045#3 18244045#4 18244045#5 18244045#6 18244045#7 18244397#0 18244397#1 18244397#2 18244397#3 18244397#4 18244397#5 18244397#6 18244397#7 18244503#0 18244503#1 18244503#2 18244503#3 18244503#4 18244503#5 18244503#6 18244503#7 18244505 18244524#0 18244525#0 18244525#1 18244605 18244679#0 18244679#1 18244679#2 18244679#3 18244679#4 18244708#1 18244985#0 18244985#1 18244985#2 18244985#3 18244985#4 18244985#5 18245132#0 18245132#1 18245132#2 18245132#3 18245132#4 18245132#5 18245132#6 18245132#7 18245330 18245458#2 18245458#3 18245458#4 18245649#0 18245649#1 18245649#2 18245649#3 18245650#0 18245650#1 18245650#2 18245650#3 18245650#4 18245650#5 18245798#0 18245798#1 18245820#1 18245820#2 18245931 18246168#0 18246168#1 18246168#2 18246168#3 18246168#4 18246168#5 18246174#1 18246177#0 18246177#1 18246177#2 18246177#3 18246177#4 18246177#5 18246372#3 18246372#4 18246440#0 18246440#1 18246440#2 18246440#3 18246440#4 18246458#1 18246458#2 18246458#3 18246458#4 18246618#0 18246618#1 18246618#10 18246618#11 18246618#12 18246618#2 18246618#3 18246618#4 18246618#5 18246618#6 18246618#7 18246618#8 18246618#9 18246862 18247110#0 18247110#1 18247164 18247193#0 18247193#1 18247193#2 18247214 18247475 18248160 18249101#0 18249101#2 18249101#3 18249101#4 18249101#5 18249101#6 18249101#7 18249101#8 18249628 18249632 18249965#0 18249965#1 18249965#2 18249965#3 18249965#4 18249965#5 18249965#6 18249965#7 18249965#8 18249965#9 18250136#1 18250136#2 18250136#3 18250524#0 18250524#1 18250524#2 18250524#3 18250524#4 18250524#5 18250524#6 18250563 18251175#0 18251175#1 18251175#2 18251175#3 18251175#4 18251614 18251827#0 18251827#1 18251827#2 18251827#3 18251827#4 18251827#5 18251827#6 18252268#0 18252268#1 18252268#2 18252268#3 18252268#4 18252270#0 18252270#1 18252270#2 18252270#3 18252270#4 18252270#5 18252270#6 18252272 18252504#0 18252504#1 18252615#10 18252615#11 18252902#0 18252902#1 18252902#2 18252902#3 18252902#4 18253259#0 18253259#1 18253259#2 18253701#0 18253701#1 18253701#2 18253701#3 18253701#4 18253701#5 18253701#6 18253713#0 18253713#1 18253713#2 18253713#3 18253713#4 18253713#5 18253713#6 18253715#0 18253715#1 18253715#2 58980482#1 58980482#10 58980482#11 58980482#12 58980482#13 58980482#15 58980482#16 58980482#17 58980482#2 58980482#3 58980482#4 58980482#5 58980482#6 58980482#7 58980482#8 58980482#9 643224201#0 668771699 668771700#0 668771700#1 668771700#2 668781266 668783355"/>
    <taz id="1_1" shape="3501.0,3501.0 10499.0,3501.0 10499.0,10499.0 3501.0,10499.0 3501.0,3501.0" color="255,0,129" edges="-113675194#0 -113675194#1 -113675194#2 -131465757#0 -131465757#1 -131589298#0 -131589298#1 -131638682 -131638688 -131638689#0 -131638689#1 -145016805#0 -145016805#1 -145016813 -145168349#1 -145168349#2 -145168349#3 -145168349#4 -146915059#0 -146915059#1 -146915059#2 -146915059#3 -146915059#4 -146915065 -177041558#0 -177041558#1 -177041558#2 -177041558#3 -177041558#4 -18229682#0 -18229682#1 -18229682#2 -18229682#3 -18229682#4 -18229682#5 -18230082#0 -18230082#1 -18231472#0 -18231472#1 -18231472#2 -18231472#3 -18231474#0 -18231474#1 -18231862#0 -18231885 -18234135 -18239243 -18241127#0 -18241127#1 -18241163 -18241235 -18241265 -18241268#0 -18241268#1 -18241268#2 -18241268#3 -18241359#0 -18241359#1 -18241359#2 -18241359#3 -18241359#4 -18241359#5 -18241745 -18241752#0 -18241752#1 -18241752#2 -18241752#3 -18241842#0 -18241842#1 -18241842#2 -18241854#0 -18241854#1 -18241854#2 -18241854#3 -18241854#4 -18241856#0 -18241856#1 -18241856#2 -18241856#3 -18241856#4 -18241856#5 -18241951#0 -18241951#1 -18241951#2 -18241951#3 -18242011#0 -18242011#1 -18242011#2 -18242011#3 -18242092#1 -18242126#0 -18242126#1 -18242126#2 -18242233#0 -18242233#1 -18242233#2 -18242258#0 -18242258#1 -18242259#0 -18242259#1 -18242356#0 -18242356#1 -18242357 -18242426#0 -18242426#1 -18242426#2 -18242427#0 -18242427#1 -18242427#2 -18242556#0 -18242573 -18242618 -18242641 -18242642 -18242740 -18242760#0 -18242760#1 -18243005#0 -18243005#1 -18243005#2 -18243005#3 -18243033 -18243040#0 -18243040#1 -18243110#0 -18243110#1 -18243110#2 -18243110#3 -18243155#0 -18243155#1 -18243155#2 -18243155#3 -18243155#4 -18243155#5 -18243155#6 -18243155#7 -18243155#8 -18243155#9 -18243184#0 -18243184#1 -18243184#2 -18243186#0 -18243186#1 -18243186#2 -18243186#3 -18243186#5 -18243190 -18243195#1 -18243201#0 -18243201#1 -18243201#2 -18243201#3 -18243201#4 -18243201#5 -18243204#0 -18243204#1 -18243204#10 -18243204#11 -18243204#12 -18243204#13 -18243204#14 -18243204#15 -18243204#16 -18243204#17 -18243204#18 -18243204#2 -18243204#3 -18243204#4 -18243204#5 -18243204#6 -18243204#7 -18243204#8 -18243204#9 -18243227#0 -18243227#1 -18243252#0 -18243252#1 -18243252#2 -18243252#3 -18243252#4 -18243381#0 -18243381#1 -18243390 -18243395#0 -18243395#1 -18243397#0 -18243397#1 -18243397#2 -18243397#3 -18243461#0 -18243461#1 -18243461#2 -18243505#0 -18243505#1 -18243553 -18243590#0 -18243590#1 -18243590#2 -18243590#3 -18243590#4 -18243590#5 -18243590#7 -18243634 -18243755#0 -18243755#1 -18243755#2 -18243755#3 -18243755#4 -18243778#0 -18243778#1 -18243778#2 -18243778#3 -18243790 -18243791#0 -18243791#1 -18243791#2 -18243791#3 -18243791#4 -18243792#0 -18243792#1 -18243793#0 -18243793#1 -18243793#2 -18243913#0 -18243913#1 -18244039 -18244059 -18244218#0 -18244218#1 -18244218#2 -18244254#0 -18244254#1 -18244255#0 -18244255#1 -18244373#0 -18244373#1 -18244373#2 -18244373#3 -18244373#4 -18244441#0 -18244441#1 -18244441#2 -18244441#3 -18244441#4 -18244456#0 -18244456#1 -18244499 -18244523 -18244524#1 -18244524#2 -18244619#0 -18244619#1 -18244619#2 -18244675#0 -18244675#1 -18244675#10 -18244675#11 -18244675#2 -18244675#3 -18244675#4 -18244675#5 -18244675#6 -18244675#7 -18244675#8 -18244675#9 -18244871 -18244884#0 -18244884#1 -18244884#2 -18244895#0 -18244895#1 -18244895#2 -18244952#0 -18244952#2 -18244952#3 -18244980 -18244997#0 -18244997#1 -18244997#2 -18244997#3 -18244997#4 -18245013#0 -18245013#1 -18245013#2 -18245013#3 -18245148 -18245236 -18245308#0 -18245308#1 -18245308#2 -18245308#3 -18245345 -18245449#0 -18245449#1 -18245449#10 -18245449#2 -18245449#3 -18245449#4 -18245449#5 -18245449#6 -18245449#7 -18245449#8 -18245449#9 -18245458#0 -18245458#1 -18245459#0 -18245459#1 -18245460 -18245467#0 -18245467#1 -18245467#2 -18245468#0 -18245468#1 -18245468#3 -18245468#4 -18245468#5 -18245468#6 -18245468#7 -18245468#8 -18245508#0 -18245508#1 -18245715#0 -18245715#1 -18245715#2 -18245715#3 -18245715#4 -18245864#0 -18245864#1 -18245864#2 -18245864#3 -18245864#4 -18245868#0 -18245868#1 -18245868#2 -18245868#3 -18245868#4 -18245901#0 -18245901#1 -18245934#0 -18245934#1 -18245934#10 -18245934#2 -18245934#4 -18245934#5 -18245934#6 -18245934#7 -18245934#8 -18245934#9 -18245935#0 -18246007#0 -18246007#1 -18246007#2 -18246053#0 -18246053#1 -18246053#2 -18246053#3 -18246122#0 -18246122#1 -18246122#2 -18246122#3 -18246122#4 -18246122#5 -18246123#0 -18246123#1 -18246123#2 -18246164#0 -18246164#1 -18246165 -18246260#0 -18246260#1 -18246260#2 -18246260#3 -18246260#4 -18246260#5 -18246261#0 -18246261#1 -18246262 -18246362#0 -18246362#2 -18246362#3 -18246362#4 -18246362#5 -18246362#6 -18246362#7 -18246372#0 -18246372#1 -18246372#2 -18246559#0 -18246559#1 -18246698#0 -18246698#1 -18246698#2 -18246698#3 -18246698#4 -18246698#5 -18246698#6 -18246698#7 -18246719#0 -18246719#1 -18246719#2 -18246771#0 -18246771#1 -18246783 -18246826 -18246952#0 -18246952#1 -18246952#10 -18246952#11 -18246952#12 -18246952#3 -18246952#4 -18246952#5 -18246952#6 -18246952#7 -18246952#8 -18246952#9 -18246986 -18246988 -18247050#0 -18247050#1 -18247091 -18247120#0 -18247120#1 -18247180#11 -18247180#12 -18247199#0 -18247199#1 -18247199#2 -18247200 -18247465 -18247470#0 -18247726#0 -18247726#1 -18247726#2 -18247726#3 -18247726#4 -18247726#5 -18247726#6 -18247726#7 -18247746 -18247754#0 -18247754#1 -18247832#0 -18247832#1 -18247960#0 -18247960#1 -18247960#2 -18247960#3 -18247973#0 -18247973#1 -18247973#2 -18247973#3 -18247973#4 -18247973#5 -18247973#6 -18247973#7 -18247973#8 -18247973#9 -18247979#0 -18247979#1 -18247980 -18247981 -18247990#0 -18247990#1 -18247990#2 -18248035 -18248100#1 -18248100#2 -18248100#3 -18248113#10 -18248113#11 -18248113#12 -18248113#13 -18248113#3 -18248113#4 -18248113#5 -18248113#6 -18248113#7 -18248113#8 -18248113#9 -18248927 -18248943 -18248977#0 -18248977#1 -18248977#2 -18248977#3 -18248977#4 -18249013#0 -18249013#1 -18249013#2 -18249013#3 -18249014#0 -18249014#1 -18249058#0 -18249092 -18249230 -18249301 -18249369#0 -18249369#1 -18249369#2 -18249681#0 -18249681#1 -18249681#2 -18249696 -18249698 -18249957#0 -18249957#1 -18250057#0 -18250057#1 -18250111 -18250167#0 -18250167#1 -18250203#0 -18250203#1 -18250209 -18250366#3 -18250396#0 -18250396#1 -18250396#2 -18250396#3 -18250396#5 -18250396#6 -18250401#0 -18250401#1 -18250403#0 -18250403#1 -18250403#2 -18250403#3 -18250403#4 -18250403#5 -18250404 -18250439 -18250574 -18250575 -18250623 -18250890#0 -18250890#1 -18250890#2 -18251724#0 -18251724#1 -18251725 -18251874#0 -18251874#1 -18251874#10 -18251874#11 -18251874#2 -18251874#3 -18251874#4 -18251874#5 -18251874#6 -18251874#7 -18251874#8 -18251874#9 -18251896#0 -18251896#1 -18251898#0 -18251898#1 -18251898#10 -18251898#2 -18251898#3 -18251898#4 -18251898#5 -18251898#6 -18251898#7 -18251898#8 -18251898#9 -18251926#0 -18251926#1 -18251926#2 -18252009#0 -18252009#1 -18252108 -18252177#0 -18252177#1 -18252212#0 -18252212#2 -18252212#3 -18252212#5 -18252212#6 -18252233#0 -18252233#1 -18252233#2 -18252233#3 -18252235#0 -18252235#1 -18252245#0 -18252245#1 -18252245#2 -18252245#3 -18252245#4 -18252245#5 -18252245#6 -18252245#7 -18252245#8 -18252245#9 -18252265#0 -18252265#1 -18252265#2 -18252265#3 -18252265#4 -18252265#5 -18252265#6 -18252265#7 -18252502#0 -18252541#8 -18252548#0 -18252548#1 -18252580#0 -18252580#1 -18252580#2 -18252615#0 -18252615#1 -18252615#2 -18252615#3 -18252615#4 -18252615#5 -18252615#6 -18252615#7 -18252615#8 -18252615#9 -18252767#0 -18252767#2 -18252767#3 -18252767#4 -18252767#5 -18252767#7 -18252767#8 -18252767#9 -18252863#0 -18252863#1 -18252924 -18252959 -18253227#0 -18253227#1 -18253227#2 -18253227#3 -18253227#4 -18253227#5 -18253452#1 -18253452#2 -18253452#3 -18253527#0 -18253527#1 -18253527#10 -18253527#2 -18253527#3 -18253527#4 -18253527#5 -18253527#6 -18253527#7 -18253527#8 -18253527#9 -18253703#0 -18253703#1 -18253739#0 -18253739#1 -18253739#2 -18253928#0 -18253928#1 -18253928#2 -208388277#0 -208388278 -208388279#0 -208402007 -352892593 -440867116#0 -440867116#1 -440867116#2 -441088721#3 -441088721#4 -441088721#5 -441088721#6 -456866102#1 -456866102#2 -456866102#3 -456866102#4 -456866102#5 -460187069#0 -48534411#0 -48534412#0 -48534412#1 -48534412#2 -48534412#3 -48572564#0 -48572564#1 -48572564#2 -48572564#3 -48572564#4 -485961604 -504904992#0 -504904992#1 -504904993#0 -504904993#1 -504904993#2 -504904993#3 -504904993#4 -504904994#0 -504904994#1 -504904995#0 -504904995#1 -504904996#0 -504904996#1 -504904996#2 -504904999#0 -504904999#1 -668777692 -668954193 -671818962#0 -671818962#1 113675194#0 113675194#1 113675194#2 118924095 131465757#1 131589298#0 131589298#1 131638682 131638683#1 131638689#0 131638689#1 131638690 145016797#1 145016805#1 145168349#1 145168349#2 145168349#3 145168349#4 146915059#0 146915059#1 146915059#2 146915059#3 146915059#4 146915065 173194842#1 173194848#1 174837415 177041531#1 177041558#1 177041558#2 177041558#3 177041558#4 18229682#0 18229682#1 18229682#2 18229682#3 18229682#4 18229682#5 18230082#1 18231472#1 18231472#2 18231472#3 18231474#0 18231474#1 18231862#1 18231885 18232334#0 18232334#1 18234135 18238724 18239243 18239778 18240906#0 18240906#1 18241127#0 18241127#1 18241163 18241235 18241265 18241268#0 18241268#1 18241268#2 18241268#3 18241359#0 18241359#1 18241359#2 18241359#3 18241359#4 18241359#5 18241752#0 18241752#1 18241752#2 18241752#3 18241842#0 18241842#1 18241842#2 18241854#0 18241854#1 18241854#2 18241854#3 18241854#4 18241856#0 18241856#1 18241856#2 18241856#3 18241856#4 18241856#5 18241951#0 18241951#1 18241951#2 18241951#3 18242011#0 18242011#1 18242011#2 18242011#3 18242092#1 18242126#1 18242126#2 18242233#0 18242233#1 18242233#2 18242258#0 18242258#1 18242259#0 18242259#1 18242290 18242356#0 18242356#1 18242356#2 18242357 18242426#0 18242426#1 18242426#2 18242427#1 18242427#2 18242427#3 18242556#0 18242556#1 18242573 18242618 18242641 18242642 18242740 18242760#0 18242760#1 18243005#0 18243005#1 18243005#2 18243005#3 18243033 18243040#0 18243040#1 18243040#2 18243110#0 18243110#1 18243110#2 18243110#3 18243155#0 18243155#1 18243155#2 18243155#3 18243155#4 18243155#5 18243155#6 18243155#7 18243155#8 18243155#9 18243184#0 18243184#1 18243184#2 18243186#0 18243186#1 18243186#2 18243186#3 18243186#5 18243186#6 18243190 18243195#1 18243201#1 18243201#2 18243201#3 18243201#4 18243201#5 18243204#1 18243204#10 18243204#11 18243204#12 18243204#13 18243204#14 18243204#15 18243204#16 18243204#17 18243204#18 18243204#2 18243204#3 18243204#4 18243204#5 18243204#6 18243204#7 18243204#8 18243204#9 18243227#0 18243227#1 18243252#1 18243252#2 18243252#3 18243252#4 18243381#0 18243381#1 18243390 18243395#1 18243397#0 18243397#1 18243397#2 18243397#3 18243461#0 18243461#1 18243461#2 18243505#1 18243553 18243590#0 18243590#1 18243590#2 18243590#3 18243590#4 18243590#5 18243590#7 18243634 18243755#0 18243755#1 18243755#2 18243755#3 18243755#4 18243778#0 18243778#1 18243778#2 18243778#3 18243790 18243791#0 18243791#1 18243791#2 18243791#3 18243791#4 18243792#0 18243792#1 18243793#0 18243793#1 18243793#2 18243913#0 18243913#1 18244039 18244059 18244218#0 18244218#1 18244218#2 18244254#0 18244254#1 18244255#0 18244255#1 18244373#0 18244373#1 18244373#2 18244373#3 18244373#4 18244441#0 18244441#1 18244441#2 18244441#3 18244441#4 18244451 18244455 18244456#0 18244456#1 18244499 18244523 18244524#1 18244524#2 18244524#3 18244619#0 18244619#1 18244619#2 18244675#0 18244675#1 18244675#10 18244675#11 18244675#2 18244675#3 18244675#4 18244675#5 18244675#6 18244675#7 18244675#8 18244675#9 18244871 18244884#1 18244884#2 18244894 18244895#1 18244895#2 18244952#0 18244952#2 18244952#3 18244980 18244997#0 18244997#1 18244997#2 18244997#3 18244997#4 18245013#0 18245013#1 18245013#2 18245013#3 18245076 18245148 18245236 18245249 18245253 18245308#0 18245308#1 18245308#2 18245308#3 18245345 18245449#0 18245449#1 18245449#10 18245449#2 18245449#3 18245449#4 18245449#5 18245449#6 18245449#7 18245449#8 18245449#9 18245458#0 18245458#1 18245459#0 18245459#1 18245459#2 18245460 18245467#0 18245467#1 18245467#2 18245468#0 18245468#1 18245468#3 18245468#4 18245468#5 18245468#6 18245468#7 18245468#8 18245508#0 18245508#1 18245715#1 18245715#2 18245715#3 18245715#4 18245715#5 18245864#0 18245864#1 18245864#2 18245864#3 18245864#4 18245868#0 18245868#1 18245868#2 18245868#3 18245868#4 18245901#1 18245934#0 18245934#1 18245934#10 18245934#2 18245934#4 18245934#5 18245934#6 18245934#7 18245934#8 18245934#9 18245935#0 18246007#0 18246007#1 18246007#2 18246053#0 18246053#1 18246053#2 18246053#3 18246122#0 18246122#1 18246122#2 18246122#3 18246122#4 18246122#5 18246123#0 18246123#1 18246123#2 18246164#0 18246164#1 18246165 18246260#0 18246260#1 18246260#2 18246260#3 18246260#4 18246260#5 18246261#0 18246261#1 18246262 18246362#0 18246362#1 18246362#3 18246362#4 18246362#5 18246362#6 18246362#7 18246372#0 18246372#1 18246372#2 18246559#1 18246698#1 18246698#2 18246698#3 18246698#4 18246698#5 18246698#6 18246698#7 18246719#0 18246719#1 18246719#2 18246771#0 18246771#1 18246783 18246826 18246952#1 18246952#10 18246952#11 18246952#12 18246952#13 18246952#3 18246952#4 18246952#5 18246952#6 18246952#7 18246952#8 18246952#9 18246986 18246988 18247050#0 18247050#1 18247091 18247120#0 18247120#1 18247180#11 18247180#12 18247199#0 18247199#1 18247199#2 18247200 18247465 18247470#0 18247470#1 18247726#0 18247726#1 18247726#2 18247726#3 18247726#4 18247726#5 18247726#6 18247726#7 18247746 18247754#0 18247754#1 18247832#0 18247832#1 18247892 18247960#0 18247960#1 18247960#2 18247960#3 18247973#0 18247973#1 18247973#2 18247973#3 18247973#4 18247973#5 18247973#6 18247973#7 18247973#8 18247973#9 18247979#0 18247979#1 18247980 18247981 18247990#0 18247990#1 18247990#2 18248035 18248100#1 18248100#2 18248100#3 18248113#10 18248113#11 18248113#12 18248113#13 18248113#3 18248113#4 18248113#5 18248113#6 18248113#7 18248113#8 18248113#9 18248927 18248943 18248977#0 18248977#1 18248977#2 18248977#3 18248977#4 18248977#5 18249013#0 18249013#1 18249013#2 18249013#3 18249014#1 18249058#0 18249058#1 18249230 18249301 18249369#0 18249369#1 18249369#2 18249369#3 18249681#0 18249681#1 18249681#2 18249696 18249957#0 18249957#1 18250057#0 18250057#1 18250111 18250167#1 18250168 18250203#0 18250203#1 18250209 18250366#3 18250396#0 18250396#1 18250396#2 18250396#3 18250396#5 18250396#6 18250401#0 18250401#1 18250403#0 18250403#1 18250403#2 18250403#3 18250403#4 18250403#5 18250404 18250439 18250574 18250575 18250623 18250660 18250890#0 18250890#1 18250890#2 18251724#0 18251724#1 18251725 18251874#0 18251874#1 18251874#10 18251874#11 18251874#2 18251874#3 18251874#4 18251874#5 18251874#6 18251874#7 18251874#8 18251874#9 18251896#0 18251896#1 18251898#0 18251898#1 18251898#10 18251898#2 18251898#3 18251898#4 18251898#5 18251898#6 18251898#7 18251898#8 18251898#9 18251926#0 18251926#1 18251926#2 18252009#0 18252009#1 18252108 18252177#1 18252177#2 18252212#0 18252212#2 18252212#3 18252212#5 18252212#6 18252233#1 18252233#2 18252233#3 18252235#1 18252235#2 18252245#1 18252245#10 18252245#2 18252245#3 18252245#4 18252245#5 18252245#6 18252245#7 18252245#8 18252245#9 18252265#1 18252265#2 18252265#3 18252265#4 18252265#5 18252265#6 18252265#7 18252265#8 18252502#0 18252502#1 18252541#8 18252548#0 18252548#1 18252580#0 18252580#1 18252580#2 18252615#0 18252615#1 18252615#2 18252615#3 18252615#4 18252615#5 18252615#6 18252615#7 18252615#8 18252615#9 18252767#0 18252767#2 18252767#3 18252767#4 18252767#5 18252767#7 18252767#8 18252767#9 18252863#0 18252863#1 18252863#2 18252924 18252959 18253227#0 18253227#1 18253227#2 18253227#3 18253227#4 18253227#5 18253450 18253452#1 18253452#2 18253452#3 18253452#4 18253527#0 18253527#1 18253527#10 18253527#2 18253527#3 18253527#4 18253527#5 18253527#6 18253527#7 18253527#8 18253527#9 18253703#0 18253703#1 18253739#0 18253739#1 18253739#2 18253928#0 18253928#1 18253928#2 188344195#1 188344195#1-AddedOnRampEdge 188344220#1 188344220#1-AddedOffRampEdge 188344220#1-AddedOnRampEdge 208388277#0 208388277#1 208388278 208388279#0 208388279#1 208388280 208402007 344529372 344529469 344529470 352892593 440867116#0 440867116#1 440867116#2 440867116#3 441088721#3 441088721#4 441088721#5 441088721#6 456866102#1 456866102#2 456866102#3 456866102#4 456866102#5 460187069#0 460187069#1 48534411#0 48534411#1 48534412#0 48534412#1 48534412#2 48534412#3 48534413 48534452 48534453 48572564#0 48572564#1 48572564#2 48572564#3 48572564#4 485961603#0 485961604 504904992#0 504904992#1 504904993#0 504904993#1 504904993#2 504904993#3 504904993#4 504904994#0 504904994#1 504904995#0 504904995#1 504904996#0 504904996#1 504904996#2 504904999#0 504904999#1 51770107#0 51770107#0-AddedOffRampEdge 51770107#0-AddedOnRampEdge 51770108 51770108-AddedOffRampEdge 56437436#1 56437436#1-AddedOffRampEdge 56437436#1-AddedOnRampEdge 668777692 668954193 668954194 671818962#1"/>